2
 OpenBabel11300909373D

 32 36  0  0  0  0  0  0  0  0999 V2000
   -0.3043   -0.2024   -0.0000 C   0  0  0  0  0
   -1.7024    0.0663   -0.0000 C   0  0  0  0  0
   -2.1704    1.3981   -0.0004 C   0  0  0  0  0
   -1.2435    2.4401   -0.0007 C   0  0  0  0  0
    0.1286    2.1725   -0.0005 C   0  0  0  0  0
   -3.5499    1.6537   -0.0005 C   0  0  0  0  0
   -4.4657    0.6041   -0.0001 C   0  0  0  0  0
   -4.0127   -0.7132    0.0002 C   0  0  0  0  0
   -2.6387   -0.9962    0.0002 C   0  0  0  0  0
   -2.1766   -2.3153    0.0004 C   0  0  0  0  0
   -0.8087   -2.5857    0.0004 C   0  0  0  0  0
    0.1306   -1.5453    0.0002 C   0  0  0  0  0
    1.4992   -1.8290    0.0002 C   0  0  0  0  0
    2.4577   -0.8104   -0.0001 C   0  0  0  0  0
    2.0502    0.5462   -0.0003 C   0  0  0  0  0
    3.0836    1.5187   -0.0006 C   0  0  0  0  0
    4.4380    1.1713   -0.0006 C   0  0  0  0  0
    4.8079   -0.1640   -0.0004 C   0  0  0  0  0
    3.8228   -1.1475   -0.0001 C   0  0  0  0  0
    0.6442    0.8552   -0.0002 C   0  0  0  0  0
   -1.5763    3.4757   -0.0006 H   0  0  0  0  0
    0.7929    3.0319   -0.0006 H   0  0  0  0  0
   -3.9212    2.6761   -0.0009 H   0  0  0  0  0
   -5.5323    0.8127   -0.0002 H   0  0  0  0  0
   -4.7421   -1.5201    0.0003 H   0  0  0  0  0
   -2.8772   -3.1472    0.0006 H   0  0  0  0  0
   -0.4826   -3.6237    0.0006 H   0  0  0  0  0
    1.8255   -2.8678    0.0004 H   0  0  0  0  0
    2.8505    2.5794   -0.0007 H   0  0  0  0  0
    5.1976    1.9485   -0.0008 H   0  0  0  0  0
    5.8580   -0.4424   -0.0004 H   0  0  0  0  0
    4.1320   -2.1910    0.0001 H   0  0  0  0  0
  1 12  1  0  0  0
  1 20  1  0  0  0
  1  2  2  0  0  0
  2  9  1  0  0  0
  2  3  1  0  0  0
  3  6  1  0  0  0
  3  4  2  0  0  0
  4  5  1  0  0  0
  4 21  1  0  0  0
  5 20  2  0  0  0
  5 22  1  0  0  0
  6  7  2  0  0  0
  6 23  1  0  0  0
  7  8  1  0  0  0
  7 24  1  0  0  0
  8  9  2  0  0  0
  8 25  1  0  0  0
  9 10  1  0  0  0
 10 11  2  0  0  0
 10 26  1  0  0  0
 11 12  1  0  0  0
 11 27  1  0  0  0
 12 13  2  0  0  0
 13 14  1  0  0  0
 13 28  1  0  0  0
 14 19  1  0  0  0
 14 15  2  0  0  0
 15 20  1  0  0  0
 15 16  1  0  0  0
 16 17  2  0  0  0
 16 29  1  0  0  0
 17 18  1  0  0  0
 17 30  1  0  0  0
 18 19  2  0  0  0
 18 31  1  0  0  0
 19 32  1  0  0  0
M  END