3
 OpenBabel11300909433D

 40 44  0  0  0  0  0  0  0  0999 V2000
   -0.5264   -1.0552   -0.8352 C   0  0  0  0  0
   -0.7401    0.2344   -0.3127 C   0  0  0  0  0
   -2.0821    0.7046   -0.1979 C   0  0  0  0  0
   -3.1569   -0.1876   -0.4144 C   0  0  0  0  0
   -2.9052   -1.4709   -0.9055 C   0  0  0  0  0
   -4.5947    0.1852   -0.1445 C   0  0  0  0  0
   -4.7665    1.5314    0.5492 C   0  0  0  0  0
   -3.8172    2.5540   -0.0526 C   0  0  0  0  0
   -2.3709    2.1343    0.2136 C   0  0  0  0  0
    0.3992    0.9420    0.1388 C   0  0  0  0  0
    1.6799    0.3487    0.1732 C   0  0  0  0  0
    1.8932   -0.9142   -0.4204 C   0  0  0  0  0
    3.1767   -1.5487   -0.3351 C   0  0  0  0  0
    4.1586   -0.9797    0.5053 C   0  0  0  0  0
    3.9323    0.2786    1.0776 C   0  0  0  0  0
    5.3379   -1.6944    0.7857 C   0  0  0  0  0
    5.5928   -2.9306    0.1918 C   0  0  0  0  0
    4.6969   -3.4451   -0.7316 C   0  0  0  0  0
    3.5098   -2.7614   -0.9921 C   0  0  0  0  0
    2.7285    0.9571    0.8718 C   0  0  0  0  0
   -1.6035   -1.8827   -1.1565 C   0  0  0  0  0
    0.7723   -1.5629   -0.9678 C   0  0  0  0  0
   -3.7229   -2.1644   -1.0850 H   0  0  0  0  0
   -5.1295    0.1985   -1.1016 H   0  0  0  0  0
   -5.0572   -0.5887    0.4820 H   0  0  0  0  0
   -5.8059    1.8637    0.4523 H   0  0  0  0  0
   -4.5624    1.4293    1.6228 H   0  0  0  0  0
   -4.0015    3.5436    0.3785 H   0  0  0  0  0
   -3.9960    2.6327   -1.1333 H   0  0  0  0  0
   -2.1489    2.2452    1.2815 H   0  0  0  0  0
   -1.7196    2.8174   -0.3449 H   0  0  0  0  0
    0.2721    1.9250    0.5887 H   0  0  0  0  0
    4.6903    0.7384    1.7082 H   0  0  0  0  0
    6.0619   -1.3003    1.4954 H   0  0  0  0  0
    6.4941   -3.4831    0.4412 H   0  0  0  0  0
    4.9027   -4.3850   -1.2368 H   0  0  0  0  0
    2.8386   -3.1981   -1.7270 H   0  0  0  0  0
    2.5907    1.9279    1.3434 H   0  0  0  0  0
   -1.4389   -2.8891   -1.5342 H   0  0  0  0  0
    0.8795   -2.5559   -1.3941 H   0  0  0  0  0
  1 21  1  0  0  0
  1 22  1  0  0  0
  1  2  2  0  0  0
  2 10  1  0  0  0
  2  3  1  0  0  0
  3  4  2  0  0  0
  3  9  1  0  0  0
  4  6  1  0  0  0
  4  5  1  0  0  0
  5 21  2  0  0  0
  5 23  1  0  0  0
  6  7  1  0  0  0
  6 24  1  0  0  0
  6 25  1  0  0  0
  7  8  1  0  0  0
  7 26  1  0  0  0
  7 27  1  0  0  0
  8  9  1  0  0  0
  8 28  1  0  0  0
  8 29  1  0  0  0
  9 30  1  0  0  0
  9 31  1  0  0  0
 10 11  2  0  0  0
 10 32  1  0  0  0
 11 12  1  0  0  0
 11 20  1  0  0  0
 12 22  2  0  0  0
 12 13  1  0  0  0
 13 14  2  0  0  0
 13 19  1  0  0  0
 14 15  1  0  0  0
 14 16  1  0  0  0
 15 20  2  0  0  0
 15 33  1  0  0  0
 16 17  2  0  0  0
 16 34  1  0  0  0
 17 18  1  0  0  0
 17 35  1  0  0  0
 18 19  2  0  0  0
 18 36  1  0  0  0
 19 37  1  0  0  0
 20 38  1  0  0  0
 21 39  1  0  0  0
 22 40  1  0  0  0
M  END