4
 OpenBabel11300909373D

 16 16  0  0  0  0  0  0  0  0999 V2000
    2.8262   -1.0437    0.2241 O   0  0  0  0  0
    2.2166   -0.0043    0.0081 C   0  0  0  0  0
    0.8684   -0.0215   -0.2220 N   0  0  0  0  0
    2.9083    1.3104   -0.0585 C   0  0  0  0  0
    2.2327    2.5215    0.1413 C   0  0  0  0  0
    2.9293    3.7308    0.0676 C   0  0  0  0  0
    4.2985    3.7352   -0.1984 C   0  0  0  0  0
    4.9784    2.5322   -0.3834 C   0  0  0  0  0
    4.2868    1.3220   -0.3093 C   0  0  0  0  0
    0.4361   -0.9351   -0.2720 H   0  0  0  0  0
    0.3726    0.7568   -0.6298 H   0  0  0  0  0
    1.1743    2.5421    0.3815 H   0  0  0  0  0
    2.4058    4.6704    0.2274 H   0  0  0  0  0
    4.8388    4.6771   -0.2523 H   0  0  0  0  0
    6.0472    2.5342   -0.5815 H   0  0  0  0  0
    4.8236    0.3854   -0.4499 H   0  0  0  0  0
  1  2  2  0  0  0
  2  4  1  0  0  0
  2  3  1  0  0  0
  3 10  1  0  0  0
  3 11  1  0  0  0
  4  5  2  0  0  0
  4  9  1  0  0  0
  5  6  1  0  0  0
  5 12  1  0  0  0
  6  7  2  0  0  0
  6 13  1  0  0  0
  7  8  1  0  0  0
  7 14  1  0  0  0
  8  9  2  0  0  0
  8 15  1  0  0  0
  9 16  1  0  0  0
M  END