6
 OpenBabel11300909373D

 32 32  0  0  0  0  0  0  0  0999 V2000
    1.0495    2.2135   -2.1253 C   0  0  0  0  0
    2.5311    2.1916   -1.8073 C   0  0  0  0  0
    2.7276    1.3497   -0.6849 O   0  0  0  0  0
    4.2239    1.0976   -0.1158 P   0  0  0  0  0
    4.2723    0.0270    1.5004 S   0  0  0  0  0
    4.9820    0.4971   -1.4176 O   0  0  0  0  0
    4.5316   -0.7478   -1.9342 C   0  0  0  0  0
    5.2540   -1.0271   -3.2362 C   0  0  0  0  0
    4.7981    2.6063   -0.0286 O   0  0  0  0  0
    6.0262    2.9780    0.4386 C   0  0  0  0  0
    6.1343    4.3082    0.8540 C   0  0  0  0  0
    7.3325    4.7921    1.3851 C   0  0  0  0  0
    8.4309    3.9302    1.4900 C   0  0  0  0  0
    8.3350    2.6029    1.0517 C   0  0  0  0  0
    7.1296    2.1296    0.5182 C   0  0  0  0  0
    9.6884    4.4252    2.0642 N   0  0  0  0  0
   10.6391    3.6340    2.1405 O   0  0  0  0  0
    9.7297    5.6064    2.4352 O   0  0  0  0  0
    0.8438    2.8462   -2.9927 H   0  0  0  0  0
    0.4788    2.5901   -1.2696 H   0  0  0  0  0
    0.6838    1.2017   -2.3296 H   0  0  0  0  0
    2.8773    3.2037   -1.5798 H   0  0  0  0  0
    3.0908    1.8078   -2.6651 H   0  0  0  0  0
    3.4528   -0.7078   -2.1136 H   0  0  0  0  0
    4.7408   -1.5435   -1.2139 H   0  0  0  0  0
    5.1050   -0.2077   -3.9467 H   0  0  0  0  0
    4.8950   -1.9565   -3.6883 H   0  0  0  0  0
    6.3323   -1.1125   -3.0669 H   0  0  0  0  0
    5.2746    4.9714    0.7818 H   0  0  0  0  0
    7.3885    5.8263    1.7157 H   0  0  0  0  0
    9.1836    1.9236    1.1232 H   0  0  0  0  0
    7.0843    1.0985    0.1800 H   0  0  0  0  0
  1  2  1  0  0  0
  1 19  1  0  0  0
  1 20  1  0  0  0
  1 21  1  0  0  0
  2  3  1  0  0  0
  2 22  1  0  0  0
  2 23  1  0  0  0
  3  4  1  0  0  0
  4  9  1  0  0  0
  4  6  1  0  0  0
  4  5  2  0  0  0
  6  7  1  0  0  0
  7  8  1  0  0  0
  7 24  1  0  0  0
  7 25  1  0  0  0
  8 26  1  0  0  0
  8 27  1  0  0  0
  8 28  1  0  0  0
  9 10  1  0  0  0
 10 11  2  0  0  0
 10 15  1  0  0  0
 11 12  1  0  0  0
 11 29  1  0  0  0
 12 13  2  0  0  0
 12 30  1  0  0  0
 13 14  1  0  0  0
 13 16  1  0  0  0
 14 15  2  0  0  0
 14 31  1  0  0  0
 15 32  1  0  0  0
 16 18  2  0  0  0
 16 17  2  0  0  0
M  END