8
 OpenBabel11300909373D

 24 26  0  0  0  0  0  0  0  0999 V2000
    1.0438    0.6161   -0.5142 Cl  0  0  0  0  0
    2.7293    0.0760   -0.2815 C   0  0  0  0  0
    2.7464   -0.9826    0.8924 C   0  0  0  0  0
    3.9369   -0.5147    1.6928 C   0  0  0  0  0
    3.7295    1.0204    1.6403 C   0  0  0  0  0
    3.7501    1.2145    0.1465 C   0  0  0  0  0
    3.3595    2.8613   -0.3545 Cl  0  0  0  0  0
    4.5956    1.5014    2.8185 C   0  0  0  0  0
    4.4866    3.2161    3.1510 Cl  0  0  0  0  0
    5.9911    0.9051    2.7572 C   0  0  0  0  0
    5.8902   -0.4065    3.0351 C   0  0  0  0  0
    7.1269   -1.5655    3.0563 Cl  0  0  0  0  0
    4.4039   -0.7324    3.1608 C   0  0  0  0  0
    3.9769   -2.2769    3.8416 Cl  0  0  0  0  0
    3.9908    0.5537    3.9491 C   0  0  0  0  0
    2.2212    0.6759    4.2529 Cl  0  0  0  0  0
    4.7631    0.7284    5.5781 Cl  0  0  0  0  0
    7.3855    1.7789    2.3589 Cl  0  0  0  0  0
    3.0544   -0.3790   -1.2231 H   0  0  0  0  0
    1.8313   -0.9741    1.4945 H   0  0  0  0  0
    2.8904   -1.9942    0.5015 H   0  0  0  0  0
    4.7835   -0.8241    1.0497 H   0  0  0  0  0
    2.7008    1.2986    1.9067 H   0  0  0  0  0
    4.7413    0.9895   -0.2674 H   0  0  0  0  0
  1  2  1  0  0  0
  2  3  1  0  0  0
  2  6  1  0  0  0
  2 19  1  0  0  0
  3  4  1  0  0  0
  3 20  1  0  0  0
  3 21  1  0  0  0
  4 13  1  0  0  0
  4  5  1  0  0  0
  4 22  1  0  0  0
  5  6  1  0  0  0
  5  8  1  0  0  0
  5 23  1  0  0  0
  6  7  1  0  0  0
  6 24  1  0  0  0
  8 10  1  0  0  0
  8  9  1  0  0  0
  8 15  1  0  0  0
 10 11  2  0  0  0
 10 18  1  0  0  0
 11 13  1  0  0  0
 11 12  1  0  0  0
 13 14  1  0  0  0
 13 15  1  0  0  0
 15 17  1  0  0  0
 15 16  1  0  0  0
M  END