12
 OpenBabel11300909433D

 27 31  0  0  0  0  0  0  0  0999 V2000
    1.5170   -0.1839    0.9000 Cl  0  0  0  0  0
    2.9914    0.2407    0.1788 C   0  0  0  0  0
    4.0536    0.8357    0.7575 C   0  0  0  0  0
    4.2102    1.3528    2.3610 Cl  0  0  0  0  0
    5.1414    0.9706   -0.2902 C   0  0  0  0  0
    6.3064    2.2582   -0.0681 Cl  0  0  0  0  0
    5.7665   -0.3771   -0.6961 C   0  0  0  0  0
    6.8162   -1.4446   -0.3831 C   0  0  0  0  0
    6.5869   -2.2323   -1.7535 C   0  0  0  0  0
    5.1143   -2.5884   -1.4228 C   0  0  0  0  0
    5.3454   -3.3706   -0.0966 C   0  0  0  0  0
    6.6463   -3.8579    0.2486 O   0  0  0  0  0
    6.3720   -2.5066    0.6167 C   0  0  0  0  0
    4.5014   -1.2523   -0.9113 C   0  0  0  0  0
    3.4129   -0.1845   -1.2401 C   0  0  0  0  0
    2.1589   -0.7161   -2.3207 Cl  0  0  0  0  0
    4.1710    1.1435   -1.5715 C   0  0  0  0  0
    3.1493    2.6469   -1.5513 Cl  0  0  0  0  0
    4.9181    1.1435   -3.2176 Cl  0  0  0  0  0
    6.2286   -0.0418   -1.6296 H   0  0  0  0  0
    7.8394   -1.0855   -0.2598 H   0  0  0  0  0
    7.2392   -3.1068   -1.8620 H   0  0  0  0  0
    6.6896   -1.6331   -2.6650 H   0  0  0  0  0
    4.5492   -3.1395   -2.1738 H   0  0  0  0  0
    4.4779   -3.7511    0.4203 H   0  0  0  0  0
    6.2617   -2.2252    1.6496 H   0  0  0  0  0
    4.1250   -1.6014    0.0644 H   0  0  0  0  0
  1  2  1  0  0  0
  2  3  2  0  0  0
  2 15  1  0  0  0
  3  5  1  0  0  0
  3  4  1  0  0  0
  5  7  1  0  0  0
  5  6  1  0  0  0
  5 17  1  0  0  0
  7  8  1  0  0  0
  7 14  1  0  0  0
  7 20  1  0  0  0
  8  9  1  0  0  0
  8 13  1  0  0  0
  8 21  1  0  0  0
  9 10  1  0  0  0
  9 22  1  0  0  0
  9 23  1  0  0  0
 10 14  1  0  0  0
 10 11  1  0  0  0
 10 24  1  0  0  0
 11 13  1  0  0  0
 11 12  1  0  0  0
 11 25  1  0  0  0
 12 13  1  0  0  0
 13 26  1  0  0  0
 14 15  1  0  0  0
 14 27  1  0  0  0
 15 16  1  0  0  0
 15 17  1  0  0  0
 17 19  1  0  0  0
 17 18  1  0  0  0
M  END