14
 OpenBabel11300909373D

  9  8  0  0  0  0  0  0  0  0999 V2000
    1.0371    0.0203   -0.0017 N   0  0  0  0  0
    2.3976   -0.0262    0.0011 C   0  0  0  0  0
    3.1943   -1.4880    0.0002 S   0  0  0  0  0
    3.1200    1.2914    0.0059 C   0  0  0  0  0
    0.5122    0.8865   -0.0007 H   0  0  0  0  0
    0.5136   -0.8480   -0.0045 H   0  0  0  0  0
    2.4163    2.1282   -0.0018 H   0  0  0  0  0
    3.7599    1.3692   -0.8782 H   0  0  0  0  0
    3.7429    1.3712    0.9019 H   0  0  0  0  0
  1  2  1  0  0  0
  1  5  1  0  0  0
  1  6  1  0  0  0
  2  4  1  0  0  0
  2  3  2  0  0  0
  4  7  1  0  0  0
  4  8  1  0  0  0
  4  9  1  0  0  0
M  END