15
 OpenBabel11300909433D

 11 10  0  0  0  0  0  0  0  0999 V2000
    1.1500   -0.1251    0.2744 O   0  0  0  0  0
    2.3204    0.1442    0.5672 N   0  0  0  0  0
    2.8084    1.0709   -0.2291 N   0  0  0  0  0
    2.1737    2.3871   -0.0813 C   0  0  0  0  0
    4.2596    1.2046   -0.0890 C   0  0  0  0  0
    1.0965    2.3416   -0.2847 H   0  0  0  0  0
    2.5892    3.0966   -0.8063 H   0  0  0  0  0
    2.3152    2.8032    0.9241 H   0  0  0  0  0
    4.7624    0.2466   -0.2706 H   0  0  0  0  0
    4.5515    1.5606    0.9072 H   0  0  0  0  0
    4.6561    1.9054   -0.8325 H   0  0  0  0  0
  1  2  2  0  0  0
  2  3  1  0  0  0
  3  5  1  0  0  0
  3  4  1  0  0  0
  4  6  1  0  0  0
  4  7  1  0  0  0
  4  8  1  0  0  0
  5  9  1  0  0  0
  5 10  1  0  0  0
  5 11  1  0  0  0
M  END