18
 OpenBabel11300909373D

  5  4  0  0  0  0  0  0  0  0999 V2000
    0.9641   -0.0177    0.0000 O   0  0  0  0  0
    2.1796    0.0476   -0.0000 C   0  0  0  0  0
    2.8785    1.1988   -0.0000 O   0  0  0  0  0
    2.8519   -0.8246   -0.0000 H   0  0  0  0  0
    3.8421    1.0407   -0.0000 H   0  0  0  0  0
  1  2  2  0  0  0
  2  3  1  0  0  0
  2  4  1  0  0  0
  3  5  1  0  0  0
M  END