19
 OpenBabel11300909373D

  8  7  0  0  0  0  0  0  0  0999 V2000
    0.9361   -0.0282   -0.0043 O   0  0  0  0  0
    2.1561   -0.0127   -0.0006 C   0  0  0  0  0
    2.9035   -1.1390   -0.0005 O   0  0  0  0  0
    2.9861    1.2348    0.0053 C   0  0  0  0  0
    3.8648   -0.9698    0.0032 H   0  0  0  0  0
    2.3279    2.1080   -0.0014 H   0  0  0  0  0
    3.6146    1.2664   -0.8885 H   0  0  0  0  0
    3.5992    1.2679    0.9097 H   0  0  0  0  0
  1  2  2  0  0  0
  2  4  1  0  0  0
  2  3  1  0  0  0
  3  5  1  0  0  0
  4  6  1  0  0  0
  4  7  1  0  0  0
  4  8  1  0  0  0
M  END