20
 OpenBabel11300909433D

 15 15  0  0  0  0  0  0  0  0999 V2000
    2.7367   -1.0509    0.3851 O   0  0  0  0  0
    2.2038   -0.0230    0.0070 C   0  0  0  0  0
    0.9364    0.0393   -0.4538 O   0  0  0  0  0
    2.9019    1.2810   -0.0514 C   0  0  0  0  0
    2.2632    2.4665    0.3345 C   0  0  0  0  0
    2.9535    3.6777    0.2642 C   0  0  0  0  0
    4.2769    3.7031   -0.1791 C   0  0  0  0  0
    4.9189    2.5188   -0.5435 C   0  0  0  0  0
    4.2346    1.3049   -0.4749 C   0  0  0  0  0
    0.7071    0.8825   -0.8876 H   0  0  0  0  0
    1.2459    2.4553    0.7179 H   0  0  0  0  0
    2.4669    4.6020    0.5674 H   0  0  0  0  0
    4.8150    4.6473   -0.2277 H   0  0  0  0  0
    5.9546    2.5403   -0.8744 H   0  0  0  0  0
    4.7391    0.3804   -0.7493 H   0  0  0  0  0
  1  2  2  0  0  0
  2  4  1  0  0  0
  2  3  1  0  0  0
  3 10  1  0  0  0
  4  5  2  0  0  0
  4  9  1  0  0  0
  5  6  1  0  0  0
  5 11  1  0  0  0
  6  7  2  0  0  0
  6 12  1  0  0  0
  7  8  1  0  0  0
  7 13  1  0  0  0
  8  9  2  0  0  0
  8 14  1  0  0  0
  9 15  1  0  0  0
M  END