29
 OpenBabel11300909433D

 18 17  0  0  0  0  0  0  0  0999 V2000
    0.9505    0.5605   -0.6669 O   0  0  0  0  0
    2.3114    0.5421   -0.2606 C   0  0  0  0  0
    2.8537    1.9641   -0.2936 C   0  0  0  0  0
    4.3183    2.0197    0.1363 C   0  0  0  0  0
    4.8583    3.4489    0.0858 C   0  0  0  0  0
    6.3135    3.5091    0.5222 C   0  0  0  0  0
    0.6319   -0.3582   -0.6382 H   0  0  0  0  0
    2.8704   -0.1046   -0.9443 H   0  0  0  0  0
    2.3679    0.1257    0.7503 H   0  0  0  0  0
    2.2426    2.6012    0.3582 H   0  0  0  0  0
    2.7387    2.3729   -1.3052 H   0  0  0  0  0
    4.9183    1.3767   -0.5194 H   0  0  0  0  0
    4.4170    1.6242    1.1547 H   0  0  0  0  0
    4.2610    4.0962    0.7365 H   0  0  0  0  0
    4.7723    3.8426   -0.9330 H   0  0  0  0  0
    6.4289    3.1590    1.5533 H   0  0  0  0  0
    6.6824    4.5385    0.4700 H   0  0  0  0  0
    6.9440    2.8892   -0.1239 H   0  0  0  0  0
  1  2  1  0  0  0
  1  7  1  0  0  0
  2  3  1  0  0  0
  2  8  1  0  0  0
  2  9  1  0  0  0
  3  4  1  0  0  0
  3 10  1  0  0  0
  3 11  1  0  0  0
  4  5  1  0  0  0
  4 12  1  0  0  0
  4 13  1  0  0  0
  5  6  1  0  0  0
  5 14  1  0  0  0
  5 15  1  0  0  0
  6 16  1  0  0  0
  6 17  1  0  0  0
  6 18  1  0  0  0
M  END