30
 OpenBabel11300909373D

 12 12  0  0  0  0  0  0  0  0999 V2000
   -0.7607    1.1687   -0.0016 C   0  0  0  0  0
   -1.3906   -0.0752   -0.0011 C   0  0  0  0  0
   -0.6291   -1.2441    0.0004 C   0  0  0  0  0
    0.7643   -1.1673    0.0017 C   0  0  0  0  0
    1.3947    0.0768    0.0011 C   0  0  0  0  0
    0.6326    1.2448   -0.0005 C   0  0  0  0  0
   -1.3538    2.0790   -0.0029 H   0  0  0  0  0
   -2.4762   -0.1343   -0.0020 H   0  0  0  0  0
   -1.1200   -2.2115    0.0009 H   0  0  0  0  0
    1.3576   -2.0777    0.0030 H   0  0  0  0  0
    2.4796    0.1358    0.0020 H   0  0  0  0  0
    1.1239    2.2141   -0.0010 H   0  0  0  0  0
  1  2  2  0  0  0
  1  6  1  0  0  0
  1  7  1  0  0  0
  2  3  1  0  0  0
  2  8  1  0  0  0
  3  4  2  0  0  0
  3  9  1  0  0  0
  4  5  1  0  0  0
  4 10  1  0  0  0
  5  6  2  0  0  0
  5 11  1  0  0  0
  6 12  1  0  0  0
M  END