32
 OpenBabel11300909433D

 26 27  0  0  0  0  0  0  0  0999 V2000
    1.1151   -0.0484    1.3267 Cl  0  0  0  0  0
    2.7996    0.0257    0.8905 C   0  0  0  0  0
    3.7058   -1.4061    1.2899 Cl  0  0  0  0  0
    3.3562    1.1047    0.2914 C   0  0  0  0  0
    2.5238    2.2919   -0.0210 C   0  0  0  0  0
    1.8765    2.3944   -1.2602 C   0  0  0  0  0
    1.0956    3.5146   -1.5554 C   0  0  0  0  0
    0.9619    4.5334   -0.6138 C   0  0  0  0  0
    0.0001    5.9125   -0.9783 Cl  0  0  0  0  0
    1.6023    4.4431    0.6208 C   0  0  0  0  0
    2.3838    3.3237    0.9175 C   0  0  0  0  0
    4.7988    1.0991   -0.0534 C   0  0  0  0  0
    5.7477    1.5627    0.8685 C   0  0  0  0  0
    7.1060    1.5601    0.5413 C   0  0  0  0  0
    7.5169    1.0965   -0.7072 C   0  0  0  0  0
    9.1897    1.0940   -1.1090 Cl  0  0  0  0  0
    6.5824    0.6354   -1.6325 C   0  0  0  0  0
    5.2238    0.6371   -1.3070 C   0  0  0  0  0
    1.9723    1.6044   -2.0016 H   0  0  0  0  0
    0.5956    3.5855   -2.5176 H   0  0  0  0  0
    1.4970    5.2378    1.3547 H   0  0  0  0  0
    2.8777    3.2629    1.8845 H   0  0  0  0  0
    5.4382    1.9250    1.8461 H   0  0  0  0  0
    7.8355    1.9190    1.2626 H   0  0  0  0  0
    6.9037    0.2737   -2.6055 H   0  0  0  0  0
    4.5033    0.2732   -2.0359 H   0  0  0  0  0
  1  2  1  0  0  0
  2  4  2  0  0  0
  2  3  1  0  0  0
  4 12  1  0  0  0
  4  5  1  0  0  0
  5  6  2  0  0  0
  5 11  1  0  0  0
  6  7  1  0  0  0
  6 19  1  0  0  0
  7  8  2  0  0  0
  7 20  1  0  0  0
  8 10  1  0  0  0
  8  9  1  0  0  0
 10 11  2  0  0  0
 10 21  1  0  0  0
 11 22  1  0  0  0
 12 13  2  0  0  0
 12 18  1  0  0  0
 13 14  1  0  0  0
 13 23  1  0  0  0
 14 15  2  0  0  0
 14 24  1  0  0  0
 15 17  1  0  0  0
 15 16  1  0  0  0
 17 18  2  0  0  0
 17 25  1  0  0  0
 18 26  1  0  0  0
M  END