33
 OpenBabel11300909373D

  5  4  0  0  0  0  0  0  0  0999 V2000
    1.0270   -0.0110   -0.0048 Br  0  0  0  0  0
    2.9624    0.0103    0.0065 C   0  0  0  0  0
    3.5562    1.6693   -0.0050 Cl  0  0  0  0  0
    3.3107   -0.5144   -0.8845 H   0  0  0  0  0
    3.3001   -0.4982    0.9108 H   0  0  0  0  0
  1  2  1  0  0  0
  2  3  1  0  0  0
  2  4  1  0  0  0
  2  5  1  0  0  0
M  END