35
 OpenBabel11300909373D

 10  9  0  0  0  0  0  0  0  0999 V2000
    0.9946   -0.0059    0.0151 N   0  0  0  0  0
    2.4508    0.0059    0.0131 C   0  0  0  0  0
    2.9702    1.4334    0.0064 C   0  0  0  0  0
    0.6640   -0.9683   -0.0337 H   0  0  0  0  0
    0.6457    0.4591   -0.8215 H   0  0  0  0  0
    2.8228   -0.5290   -0.8675 H   0  0  0  0  0
    2.8191   -0.5167    0.9023 H   0  0  0  0  0
    2.6382    1.9721   -0.8871 H   0  0  0  0  0
    4.0649    1.4365    0.0144 H   0  0  0  0  0
    2.6249    1.9842    0.8874 H   0  0  0  0  0
  1  2  1  0  0  0
  1  4  1  0  0  0
  1  5  1  0  0  0
  2  3  1  0  0  0
  2  6  1  0  0  0
  2  7  1  0  0  0
  3  8  1  0  0  0
  3  9  1  0  0  0
  3 10  1  0  0  0
M  END