36
 OpenBabel11300909433D

  7  6  0  0  0  0  0  0  0  0999 V2000
    0.9638   -0.0301   -0.0085 O   0  0  0  0  0
    2.1895    0.0132    0.0004 C   0  0  0  0  0
    2.9698    1.2925    0.0058 C   0  0  0  0  0
    2.7903   -0.9106    0.0051 H   0  0  0  0  0
    2.2883    2.1473   -0.0007 H   0  0  0  0  0
    3.6049    1.3273   -0.8820 H   0  0  0  0  0
    3.5900    1.3288    0.9040 H   0  0  0  0  0
  1  2  2  0  0  0
  2  3  1  0  0  0
  2  4  1  0  0  0
  3  5  1  0  0  0
  3  6  1  0  0  0
  3  7  1  0  0  0
M  END