38
 OpenBabel11300909443D

  5  4  0  0  0  0  0  0  0  0999 V2000
    1.0253   -0.0069   -0.0016 Br  0  0  0  0  0
    2.9649    0.0093   -0.0148 C   0  0  0  0  0
    3.5620   -0.8695   -1.4242 Cl  0  0  0  0  0
    3.5505    1.6742    0.0017 Cl  0  0  0  0  0
    3.2994   -0.4988    0.8943 H   0  0  0  0  0
  1  2  1  0  0  0
  2  4  1  0  0  0
  2  3  1  0  0  0
  2  5  1  0  0  0
M  END