40
 OpenBabel11300909443D

 11 10  0  0  0  0  0  0  0  0999 V2000
    2.8323   -1.1466    0.4923 O   0  0  0  0  0
    2.4470   -0.2062   -0.1924 C   0  0  0  0  0
    1.3274   -0.3146   -0.9569 O   0  0  0  0  0
    3.1242    1.1701   -0.2276 C   0  0  0  0  0
    2.9959    1.8353   -1.8917 Cl  0  0  0  0  0
    2.2137    2.2411    0.8785 Cl  0  0  0  0  0
    4.5869    1.1024    0.1828 C   0  0  0  0  0
    1.1306    0.5022   -1.4642 H   0  0  0  0  0
    4.6979    0.7159    1.2028 H   0  0  0  0  0
    5.0648    2.0879    0.1467 H   0  0  0  0  0
    5.1507    0.4304   -0.4752 H   0  0  0  0  0
  1  2  2  0  0  0
  2  4  1  0  0  0
  2  3  1  0  0  0
  3  8  1  0  0  0
  4  7  1  0  0  0
  4  6  1  0  0  0
  4  5  1  0  0  0
  7  9  1  0  0  0
  7 10  1  0  0  0
  7 11  1  0  0  0
M  END