45
 OpenBabel11300909373D

  6  5  0  0  0  0  0  0  0  0999 V2000
    1.0411    0.0150    0.0000 C   0  0  0  0  0
    0.3794   -1.1445    0.0000 C   0  0  0  0  0
    1.0888   -2.7071    0.0000 Cl  0  0  0  0  0
    0.1555    1.5004    0.0000 Cl  0  0  0  0  0
    2.7646    0.1257   -0.0000 Cl  0  0  0  0  0
   -0.7004   -1.2082    0.0000 H   0  0  0  0  0
  1  5  1  0  0  0
  1  4  1  0  0  0
  1  2  2  0  0  0
  2  3  1  0  0  0
  2  6  1  0  0  0
M  END