48
 OpenBabel11300909443D

 11 10  0  0  0  0  0  0  0  0999 V2000
    1.1991   -0.1456    0.5203 O   0  0  0  0  0
    2.3846    0.0771    0.3192 C   0  0  0  0  0
    3.3923   -0.8302    0.4420 O   0  0  0  0  0
    2.9552   -2.1301    0.8405 C   0  0  0  0  0
    2.9381    1.4045   -0.0990 C   0  0  0  0  0
    3.8341   -2.7771    0.9071 H   0  0  0  0  0
    2.2717   -2.5501    0.0959 H   0  0  0  0  0
    2.4795   -2.0895    1.8254 H   0  0  0  0  0
    2.1179    2.1193   -0.2132 H   0  0  0  0  0
    3.4499    1.3070   -1.0597 H   0  0  0  0  0
    3.6227    1.7782    0.6665 H   0  0  0  0  0
  1  2  2  0  0  0
  2  5  1  0  0  0
  2  3  1  0  0  0
  3  4  1  0  0  0
  4  6  1  0  0  0
  4  7  1  0  0  0
  4  8  1  0  0  0
  5  9  1  0  0  0
  5 10  1  0  0  0
  5 11  1  0  0  0
M  END