49
 OpenBabel11300909373D

  8  7  0  0  0  0  0  0  0  0999 V2000
    1.0063    0.0392    0.0136 C   0  0  0  0  0
    0.4995   -0.6804    1.2745 C   0  0  0  0  0
    1.0053    0.0943    2.8047 Cl  0  0  0  0  0
   -1.2843   -0.8443    1.2659 Cl  0  0  0  0  0
    0.4763    1.7424   -0.1119 Cl  0  0  0  0  0
    2.7923   -0.0260   -0.1077 Cl  0  0  0  0  0
    0.6282   -0.4696   -0.8794 H   0  0  0  0  0
    0.8924   -1.7023    1.2998 H   0  0  0  0  0
  1  6  1  0  0  0
  1  5  1  0  0  0
  1  2  1  0  0  0
  1  7  1  0  0  0
  2  4  1  0  0  0
  2  3  1  0  0  0
  2  8  1  0  0  0
M  END