56
 OpenBabel11300909383D

 23 25  0  0  0  0  0  0  0  0999 V2000
    1.1776    0.8860    0.0012 C   0  0  0  0  0
    0.7243   -0.4516   -0.0001 C   0  0  0  0  0
   -0.7237   -0.4516    0.0003 C   0  0  0  0  0
   -1.1770    0.8857    0.0008 C   0  0  0  0  0
   -2.5275    1.1929    0.0012 C   0  0  0  0  0
   -3.4396    0.1357    0.0003 C   0  0  0  0  0
   -2.9952   -1.1978   -0.0005 C   0  0  0  0  0
   -1.6294   -1.4993   -0.0012 C   0  0  0  0  0
    1.6298   -1.4990   -0.0007 C   0  0  0  0  0
    2.9957   -1.1971   -0.0007 C   0  0  0  0  0
    3.4401    0.1362    0.0005 C   0  0  0  0  0
    2.5280    1.1933    0.0012 C   0  0  0  0  0
   -0.0002    1.8396    0.0017 C   0  0  0  0  0
   -2.8710    2.2222    0.0019 H   0  0  0  0  0
   -4.5071    0.3445    0.0005 H   0  0  0  0  0
   -3.7237   -2.0050   -0.0011 H   0  0  0  0  0
   -1.2966   -2.5313   -0.0014 H   0  0  0  0  0
    1.2973   -2.5312   -0.0017 H   0  0  0  0  0
    3.7246   -2.0048   -0.0013 H   0  0  0  0  0
    4.5065    0.3449    0.0003 H   0  0  0  0  0
    2.8712    2.2224    0.0020 H   0  0  0  0  0
    0.0000    2.4534    0.9071 H   0  0  0  0  0
    0.0001    2.4546   -0.9029 H   0  0  0  0  0
  1 13  1  0  0  0
  1 12  1  0  0  0
  1  2  2  0  0  0
  2  3  1  0  0  0
  2  9  1  0  0  0
  3  8  1  0  0  0
  3  4  2  0  0  0
  4  5  1  0  0  0
  4 13  1  0  0  0
  5  6  2  0  0  0
  5 14  1  0  0  0
  6  7  1  0  0  0
  6 15  1  0  0  0
  7  8  2  0  0  0
  7 16  1  0  0  0
  8 17  1  0  0  0
  9 10  2  0  0  0
  9 18  1  0  0  0
 10 11  1  0  0  0
 10 19  1  0  0  0
 11 12  2  0  0  0
 11 20  1  0  0  0
 12 21  1  0  0  0
 13 22  1  0  0  0
 13 23  1  0  0  0
M  END