61
 OpenBabel11300909383D

 18 18  0  0  0  0  0  0  0  0999 V2000
    2.7844   -0.7087    1.0175 O   0  0  0  0  0
    2.1958    0.1996    0.4504 C   0  0  0  0  0
    0.9370    0.0489    0.0041 O   0  0  0  0  0
    2.9049    1.4657    0.1107 C   0  0  0  0  0
    2.3722    2.7626    0.1512 C   0  0  0  0  0
    3.2001    3.8706   -0.1155 C   0  0  0  0  0
    4.5504    3.6955   -0.4172 C   0  0  0  0  0
    5.0878    2.4144   -0.4548 C   0  0  0  0  0
    0.9502    3.0274    0.4240 C   0  0  0  0  0
    0.0300    2.3429    0.0169 O   0  0  0  0  0
    0.7585    4.1320    1.1605 O   0  0  0  0  0
    4.2739    1.3110   -0.1881 C   0  0  0  0  0
    0.4677    0.8539   -0.3136 H   0  0  0  0  0
    2.7948    4.8810   -0.0919 H   0  0  0  0  0
    5.1817    4.5583   -0.6185 H   0  0  0  0  0
    6.1419    2.2693   -0.6813 H   0  0  0  0  0
   -0.2123    4.2063    1.2808 H   0  0  0  0  0
    4.7192    0.3158   -0.2031 H   0  0  0  0  0
  1  2  2  0  0  0
  2  4  1  0  0  0
  2  3  1  0  0  0
  3 13  1  0  0  0
  4  5  2  0  0  0
  4 12  1  0  0  0
  5  6  1  0  0  0
  5  9  1  0  0  0
  6  7  2  0  0  0
  6 14  1  0  0  0
  7  8  1  0  0  0
  7 15  1  0  0  0
  8 12  2  0  0  0
  8 16  1  0  0  0
  9 11  1  0  0  0
  9 10  2  0  0  0
 11 17  1  0  0  0
 12 18  1  0  0  0
M  END