63
 OpenBabel11300909443D

 21 22  0  0  0  0  0  0  0  0999 V2000
   -0.0194    0.6911   -0.0128 C   0  0  0  0  0
   -0.0021   -0.7266   -0.0181 C   0  0  0  0  0
    1.2511   -1.3979   -0.0184 C   0  0  0  0  0
    2.4421   -0.6534   -0.0117 C   0  0  0  0  0
    2.4108    0.7371   -0.0063 C   0  0  0  0  0
    1.3449   -2.9011   -0.0224 C   0  0  0  0  0
   -1.2451   -1.3988   -0.0203 C   0  0  0  0  0
   -2.4557   -0.7012   -0.0212 C   0  0  0  0  0
   -2.4554    0.6871   -0.0181 C   0  0  0  0  0
   -1.2450    1.3784   -0.0144 C   0  0  0  0  0
    1.1887    1.4038   -0.0083 C   0  0  0  0  0
    3.4066   -1.1572   -0.0099 H   0  0  0  0  0
    3.3385    1.3027   -0.0013 H   0  0  0  0  0
    2.3863   -3.2405   -0.0501 H   0  0  0  0  0
    0.8459   -3.3124   -0.9062 H   0  0  0  0  0
    0.8893   -3.3125    0.8838 H   0  0  0  0  0
   -1.2864   -2.4852   -0.0225 H   0  0  0  0  0
   -3.3960   -1.2465   -0.0237 H   0  0  0  0  0
   -3.3943    1.2339   -0.0189 H   0  0  0  0  0
   -1.2646    2.4659   -0.0115 H   0  0  0  0  0
    1.1860    2.4914   -0.0044 H   0  0  0  0  0
  1 11  1  0  0  0
  1 10  1  0  0  0
  1  2  2  0  0  0
  2  7  1  0  0  0
  2  3  1  0  0  0
  3  4  2  0  0  0
  3  6  1  0  0  0
  4  5  1  0  0  0
  4 12  1  0  0  0
  5 11  2  0  0  0
  5 13  1  0  0  0
  6 14  1  0  0  0
  6 15  1  0  0  0
  6 16  1  0  0  0
  7  8  2  0  0  0
  7 17  1  0  0  0
  8  9  1  0  0  0
  8 18  1  0  0  0
  9 10  2  0  0  0
  9 19  1  0  0  0
 10 20  1  0  0  0
 11 21  1  0  0  0
M  END