67
 OpenBabel11300909443D

 22 23  0  0  0  0  0  0  0  0999 V2000
   -1.3700   -0.1003   -0.1138 C   0  0  0  0  0
   -2.8352   -0.1936   -0.2288 C   0  0  0  0  0
   -3.5590   -1.1561    0.4950 C   0  0  0  0  0
   -4.9496   -1.2449    0.3869 C   0  0  0  0  0
   -5.6411   -0.3719   -0.4489 C   0  0  0  0  0
   -4.9436    0.5894   -1.1758 C   0  0  0  0  0
   -3.5531    0.6773   -1.0657 C   0  0  0  0  0
   -0.7442    1.1165    0.2057 C   0  0  0  0  0
    0.6463    1.2058    0.3153 C   0  0  0  0  0
    1.4361    0.0783    0.1063 C   0  0  0  0  0
    0.8370   -1.1376   -0.2118 C   0  0  0  0  0
   -0.5539   -1.2253   -0.3203 C   0  0  0  0  0
   -3.0395   -1.8403    1.1630 H   0  0  0  0  0
   -5.4906   -1.9946    0.9583 H   0  0  0  0  0
   -6.7223   -0.4406   -0.5338 H   0  0  0  0  0
   -5.4793    1.2706   -1.8316 H   0  0  0  0  0
   -3.0264    1.4279   -1.6516 H   0  0  0  0  0
   -1.3433    2.0069    0.3849 H   0  0  0  0  0
    1.1098    2.1561    0.5669 H   0  0  0  0  0
    2.5172    0.1470    0.1914 H   0  0  0  0  0
    1.4498   -2.0195   -0.3790 H   0  0  0  0  0
   -1.0009   -2.1826   -0.5815 H   0  0  0  0  0
  1  8  2  0  0  0
  1 12  1  0  0  0
  1  2  1  0  0  0
  2  3  2  0  0  0
  2  7  1  0  0  0
  3  4  1  0  0  0
  3 13  1  0  0  0
  4  5  2  0  0  0
  4 14  1  0  0  0
  5  6  1  0  0  0
  5 15  1  0  0  0
  6  7  2  0  0  0
  6 16  1  0  0  0
  7 17  1  0  0  0
  8  9  1  0  0  0
  8 18  1  0  0  0
  9 10  2  0  0  0
  9 19  1  0  0  0
 10 11  1  0  0  0
 10 20  1  0  0  0
 11 12  2  0  0  0
 11 21  1  0  0  0
 12 22  1  0  0  0
M  END