78
 OpenBabel11300909383D

 24 24  0  0  0  0  0  0  0  0999 V2000
   -0.6534   -1.2569   -0.1427 C   0  0  0  0  0
   -1.4176   -0.0790   -0.1270 C   0  0  0  0  0
   -0.7582    1.1624   -0.1234 C   0  0  0  0  0
    0.6435    1.2556   -0.1244 C   0  0  0  0  0
    1.4068    0.0780   -0.1296 C   0  0  0  0  0
    2.9103    0.1145   -0.1400 C   0  0  0  0  0
    1.2909    2.6136   -0.1294 C   0  0  0  0  0
   -2.9209   -0.1018   -0.1279 C   0  0  0  0  0
    0.7493   -1.1621   -0.1389 C   0  0  0  0  0
   -1.2605   -2.6333   -0.1468 C   0  0  0  0  0
   -1.3496    2.0773   -0.1199 H   0  0  0  0  0
    3.3385   -0.8920   -0.0824 H   0  0  0  0  0
    3.2861    0.6772    0.7208 H   0  0  0  0  0
    3.2711    0.5766   -1.0646 H   0  0  0  0  0
    0.5462    3.4156   -0.0953 H   0  0  0  0  0
    1.8806    2.7482   -1.0416 H   0  0  0  0  0
    1.9378    2.7309    0.7454 H   0  0  0  0  0
   -3.3410    0.9080   -0.0653 H   0  0  0  0  0
   -3.2946   -0.6626    0.7349 H   0  0  0  0  0
   -3.2920   -0.5561   -1.0523 H   0  0  0  0  0
    1.3385   -2.0782   -0.1459 H   0  0  0  0  0
   -2.3488   -2.6208   -0.2471 H   0  0  0  0  0
   -1.0167   -3.1505    0.7873 H   0  0  0  0  0
   -0.8664   -3.2132   -0.9886 H   0  0  0  0  0
  1  2  2  0  0  0
  1  9  1  0  0  0
  1 10  1  0  0  0
  2  3  1  0  0  0
  2  8  1  0  0  0
  3  4  2  0  0  0
  3 11  1  0  0  0
  4  5  1  0  0  0
  4  7  1  0  0  0
  5  9  2  0  0  0
  5  6  1  0  0  0
  6 12  1  0  0  0
  6 13  1  0  0  0
  6 14  1  0  0  0
  7 15  1  0  0  0
  7 16  1  0  0  0
  7 17  1  0  0  0
  8 18  1  0  0  0
  8 19  1  0  0  0
  8 20  1  0  0  0
  9 21  1  0  0  0
 10 22  1  0  0  0
 10 23  1  0  0  0
 10 24  1  0  0  0
M  END