80
 OpenBabel11300909383D

 13 13  0  0  0  0  0  0  0  0999 V2000
    0.9911   -0.0775    0.1179 O   0  0  0  0  0
    2.3519   -0.0408   -0.0076 C   0  0  0  0  0
    3.0585    1.1612   -0.0788 C   0  0  0  0  0
    4.4455    1.1486   -0.2067 C   0  0  0  0  0
    5.1243   -0.0734   -0.2632 C   0  0  0  0  0
    4.4118   -1.2795   -0.1913 C   0  0  0  0  0
    5.1918   -2.8196   -0.2554 Cl  0  0  0  0  0
    6.8446   -0.0253   -0.4224 Cl  0  0  0  0  0
    2.2250    2.6683   -0.0095 Cl  0  0  0  0  0
    3.0199   -1.2596   -0.0629 C   0  0  0  0  0
    0.6694    0.8440    0.1422 H   0  0  0  0  0
    4.9973    2.0835   -0.2623 H   0  0  0  0  0
    2.4549   -2.1861   -0.0061 H   0  0  0  0  0
  1  2  1  0  0  0
  1 11  1  0  0  0
  2  3  2  0  0  0
  2 10  1  0  0  0
  3  4  1  0  0  0
  3  9  1  0  0  0
  4  5  2  0  0  0
  4 12  1  0  0  0
  5  6  1  0  0  0
  5  8  1  0  0  0
  6 10  2  0  0  0
  6  7  1  0  0  0
 10 13  1  0  0  0
M  END