86
 OpenBabel11300909443D

 14 14  0  0  0  0  0  0  0  0999 V2000
    0.9410    0.0161    0.0762 N   0  0  0  0  0
    0.3717   -1.0831    0.0158 O   0  0  0  0  0
    0.3584    1.1018    0.2158 O   0  0  0  0  0
    2.4054    0.0347   -0.0247 C   0  0  0  0  0
    3.0902    1.2556    0.0355 C   0  0  0  0  0
    4.4829    1.2665   -0.0610 C   0  0  0  0  0
    5.1834    0.0690   -0.2160 C   0  0  0  0  0
    4.4978   -1.1460   -0.2756 C   0  0  0  0  0
    3.1056   -1.1700   -0.1802 C   0  0  0  0  0
    2.5595    2.1977    0.1559 H   0  0  0  0  0
    5.0240    2.2097   -0.0154 H   0  0  0  0  0
    6.2687    0.0824   -0.2907 H   0  0  0  0  0
    5.0506   -2.0753   -0.3964 H   0  0  0  0  0
    2.5865   -2.1245   -0.2284 H   0  0  0  0  0
  1  4  1  0  0  0
  1  3  2  0  0  0
  1  2  2  0  0  0
  4  5  2  0  0  0
  4  9  1  0  0  0
  5  6  1  0  0  0
  5 10  1  0  0  0
  6  7  2  0  0  0
  6 11  1  0  0  0
  7  8  1  0  0  0
  7 12  1  0  0  0
  8  9  2  0  0  0
  8 13  1  0  0  0
  9 14  1  0  0  0
M  END