93
 OpenBabel11300909443D

 23 24  0  0  0  0  0  0  0  0999 V2000
    2.7883    3.1975   -1.5807 O   0  0  0  0  0
    2.5007    3.3679   -2.9163 C   0  0  0  0  0
    1.1911    3.0750   -3.3042 C   0  0  0  0  0
    0.8165    3.1802   -4.6440 C   0  0  0  0  0
    1.7550    3.5696   -5.5998 C   0  0  0  0  0
    3.0693    3.8409   -5.2179 C   0  0  0  0  0
    3.4468    3.7282   -3.8788 C   0  0  0  0  0
    3.7013    4.0405   -0.9905 C   0  0  0  0  0
    4.6379    3.4533   -0.1389 C   0  0  0  0  0
    5.5715    4.2488    0.5253 C   0  0  0  0  0
    5.5591    5.6326    0.3480 C   0  0  0  0  0
    4.6057    6.2226   -0.4828 C   0  0  0  0  0
    3.6666    5.4291   -1.1433 C   0  0  0  0  0
    0.4620    2.7635   -2.5603 H   0  0  0  0  0
   -0.2036    2.9544   -4.9425 H   0  0  0  0  0
    1.4637    3.6521   -6.6449 H   0  0  0  0  0
    3.8024    4.1320   -5.9657 H   0  0  0  0  0
    4.4790    3.9180   -3.6012 H   0  0  0  0  0
    4.6405    2.3762    0.0043 H   0  0  0  0  0
    6.3047    3.7903    1.1843 H   0  0  0  0  0
    6.2871    6.2525    0.8658 H   0  0  0  0  0
    4.5892    7.3017   -0.6098 H   0  0  0  0  0
    2.9138    5.8978   -1.7711 H   0  0  0  0  0
  1  8  1  0  0  0
  1  2  1  0  0  0
  2  3  2  0  0  0
  2  7  1  0  0  0
  3  4  1  0  0  0
  3 14  1  0  0  0
  4  5  2  0  0  0
  4 15  1  0  0  0
  5  6  1  0  0  0
  5 16  1  0  0  0
  6  7  2  0  0  0
  6 17  1  0  0  0
  7 18  1  0  0  0
  8  9  2  0  0  0
  8 13  1  0  0  0
  9 10  1  0  0  0
  9 19  1  0  0  0
 10 11  2  0  0  0
 10 20  1  0  0  0
 11 12  1  0  0  0
 11 21  1  0  0  0
 12 13  2  0  0  0
 12 22  1  0  0  0
 13 23  1  0  0  0
M  END