99
 OpenBabel11300909443D

 14 14  0  0  0  0  0  0  0  0999 V2000
    1.0106    0.0148    0.2749 N   0  0  0  0  0
    2.3804    0.0333   -0.0091 C   0  0  0  0  0
    3.0777    1.2442   -0.0315 C   0  0  0  0  0
    4.4667    1.2668   -0.1889 C   0  0  0  0  0
    5.1699    0.0680   -0.2803 C   0  0  0  0  0
    4.4965   -1.1470   -0.1978 C   0  0  0  0  0
    6.8792    0.0903   -0.4695 Cl  0  0  0  0  0
    3.1073   -1.1611   -0.0403 C   0  0  0  0  0
    0.5182    0.8521   -0.0215 H   0  0  0  0  0
    0.5392   -0.8320   -0.0279 H   0  0  0  0  0
    2.5436    2.1855    0.0734 H   0  0  0  0  0
    4.9901    2.2176   -0.2238 H   0  0  0  0  0
    5.0434   -2.0851   -0.2397 H   0  0  0  0  0
    2.5972   -2.1149    0.0575 H   0  0  0  0  0
  1  2  1  0  0  0
  1  9  1  0  0  0
  1 10  1  0  0  0
  2  3  2  0  0  0
  2  8  1  0  0  0
  3  4  1  0  0  0
  3 11  1  0  0  0
  4  5  2  0  0  0
  4 12  1  0  0  0
  5  6  1  0  0  0
  5  7  1  0  0  0
  6  8  2  0  0  0
  6 13  1  0  0  0
  8 14  1  0  0  0
M  END