101
 OpenBabel11300909443D

  8  7  0  0  0  0  0  0  0  0999 V2000
    0.9900   -0.0664   -0.0596 O   0  0  0  0  0
    2.2125   -0.0361   -0.0128 C   0  0  0  0  0
    2.9493    1.2431   -0.0276 C   0  0  0  0  0
    4.2853    1.2650    0.0239 C   0  0  0  0  0
    2.8234   -0.9525    0.0425 H   0  0  0  0  0
    2.3518    2.1457   -0.0819 H   0  0  0  0  0
    4.8830    0.3604    0.0783 H   0  0  0  0  0
    4.8173    2.2119    0.0124 H   0  0  0  0  0
  1  2  2  0  0  0
  2  3  1  0  0  0
  2  5  1  0  0  0
  3  4  2  0  0  0
  3  6  1  0  0  0
  4  7  1  0  0  0
  4  8  1  0  0  0
M  END