102
 OpenBabel11300909443D

  8  7  0  0  0  0  0  0  0  0999 V2000
    1.0008   -0.0891   -0.0103 Cl  0  0  0  0  0
    2.7796    0.0015    0.0043 C   0  0  0  0  0
    3.2332    1.4491    0.0205 C   0  0  0  0  0
    5.0117    1.5401    0.0350 Cl  0  0  0  0  0
    3.1431   -0.5205   -0.8860 H   0  0  0  0  0
    3.1293   -0.5362    0.8908 H   0  0  0  0  0
    2.8694    1.9716    0.9110 H   0  0  0  0  0
    2.8831    1.9872   -0.8662 H   0  0  0  0  0
  1  2  1  0  0  0
  2  3  1  0  0  0
  2  5  1  0  0  0
  2  6  1  0  0  0
  3  4  1  0  0  0
  3  7  1  0  0  0
  3  8  1  0  0  0
M  END