103
 OpenBabel11300909443D

  9  8  0  0  0  0  0  0  0  0999 V2000
    1.0000    0.0000    0.0000 C   0  0  0  0  0
   -0.1510    0.0000    0.0000 N   0  0  0  0  0
    2.4440    0.0000    0.0000 C   0  0  0  0  0
    3.0013    1.4142   -0.0024 C   0  0  0  0  0
    2.8203   -0.5353   -0.8788 H   0  0  0  0  0
    2.8202   -0.5324    0.8806 H   0  0  0  0  0
    2.6731    1.9675   -0.8889 H   0  0  0  0  0
    4.0953    1.3915   -0.0014 H   0  0  0  0  0
    2.6717    1.9710    0.8817 H   0  0  0  0  0
  1  3  1  0  0  0
  1  2  3  0  0  0
  3  4  1  0  0  0
  3  5  1  0  0  0
  3  6  1  0  0  0
  4  7  1  0  0  0
  4  8  1  0  0  0
  4  9  1  0  0  0
M  END