104
 OpenBabel11300909443D

  7  6  0  0  0  0  0  0  0  0999 V2000
    1.0000    0.0000    0.0000 C   0  0  0  0  0
   -0.1510    0.0000    0.0000 N   0  0  0  0  0
    2.4060    0.0000    0.0000 C   0  0  0  0  0
    3.1266    1.1287   -0.0000 C   0  0  0  0  0
    2.9043   -0.9633   -0.0000 H   0  0  0  0  0
    2.6571    2.1090   -0.0000 H   0  0  0  0  0
    4.2117    1.0943   -0.0000 H   0  0  0  0  0
  1  3  1  0  0  0
  1  2  3  0  0  0
  3  4  2  0  0  0
  3  5  1  0  0  0
  4  6  1  0  0  0
  4  7  1  0  0  0
M  END