108
 OpenBabel11300909393D

  8  7  0  0  0  0  0  0  0  0999 V2000
    2.6526   -1.0128   -0.1840 O   0  0  0  0  0
    2.1872    0.0808    0.0875 C   0  0  0  0  0
    2.8708    1.2464    0.2052 O   0  0  0  0  0
    4.2744    1.1157   -0.0235 C   0  0  0  0  0
    1.1194    0.2722    0.2786 H   0  0  0  0  0
    4.7302    2.1026    0.0939 H   0  0  0  0  0
    4.4658    0.7646   -1.0423 H   0  0  0  0  0
    4.7211    0.4381    0.7109 H   0  0  0  0  0
  1  2  2  0  0  0
  2  3  1  0  0  0
  2  5  1  0  0  0
  3  4  1  0  0  0
  4  6  1  0  0  0
  4  7  1  0  0  0
  4  8  1  0  0  0
M  END