109
 OpenBabel11300909393D

 16 15  0  0  0  0  0  0  0  0999 V2000
    0.7424    0.4961   -1.1507 O   0  0  0  0  0
    1.7971    0.3264   -0.5412 C   0  0  0  0  0
    2.2217   -1.0230    0.0105 C   0  0  0  0  0
    1.2209   -2.1283   -0.3136 C   0  0  0  0  0
    1.6679   -3.4675    0.2494 C   0  0  0  0  0
    2.7497    1.4696   -0.3036 C   0  0  0  0  0
    2.3304   -0.9232    1.0962 H   0  0  0  0  0
    3.2000   -1.2692   -0.4172 H   0  0  0  0  0
    1.0987   -2.2150   -1.3998 H   0  0  0  0  0
    0.2362   -1.8742    0.0965 H   0  0  0  0  0
    2.6348   -3.7658   -0.1684 H   0  0  0  0  0
    0.9375   -4.2448    0.0039 H   0  0  0  0  0
    1.7630   -3.4227    1.3390 H   0  0  0  0  0
    2.3232    2.3944   -0.7017 H   0  0  0  0  0
    3.6962    1.2681   -0.8112 H   0  0  0  0  0
    2.9154    1.5922    0.7696 H   0  0  0  0  0
  1  2  2  0  0  0
  2  6  1  0  0  0
  2  3  1  0  0  0
  3  4  1  0  0  0
  3  7  1  0  0  0
  3  8  1  0  0  0
  4  5  1  0  0  0
  4  9  1  0  0  0
  4 10  1  0  0  0
  5 11  1  0  0  0
  5 12  1  0  0  0
  5 13  1  0  0  0
  6 14  1  0  0  0
  6 15  1  0  0  0
  6 16  1  0  0  0
M  END