115
 OpenBabel11300909393D

 21 21  0  0  0  0  0  0  0  0999 V2000
   -0.6949    1.2160    0.0029 C   0  0  0  0  0
   -1.3894    0.0007    0.0039 C   0  0  0  0  0
   -0.6992   -1.2181   -0.0006 C   0  0  0  0  0
    0.7021   -1.2117   -0.0058 C   0  0  0  0  0
    1.4128   -0.0061   -0.0051 C   0  0  0  0  0
    2.9127    0.0056   -0.0117 C   0  0  0  0  0
   -1.4394   -2.5237   -0.0014 C   0  0  0  0  0
    0.7056    1.2030   -0.0010 C   0  0  0  0  0
   -1.4288    2.5235    0.0092 C   0  0  0  0  0
   -2.4775    0.0023    0.0078 H   0  0  0  0  0
    1.2404   -2.1572   -0.0101 H   0  0  0  0  0
    3.3231   -1.0095    0.0017 H   0  0  0  0  0
    3.2897    0.5310    0.8717 H   0  0  0  0  0
    3.2816    0.5054   -0.9131 H   0  0  0  0  0
   -2.5233   -2.3712    0.0106 H   0  0  0  0  0
   -1.1729   -3.1080    0.8847 H   0  0  0  0  0
   -1.1904   -3.0966   -0.8999 H   0  0  0  0  0
    1.2519    2.1447   -0.0011 H   0  0  0  0  0
   -2.5142    2.3768   -0.0049 H   0  0  0  0  0
   -1.1595    3.1122   -0.8742 H   0  0  0  0  0
   -1.1787    3.0924    0.9110 H   0  0  0  0  0
  1  2  2  0  0  0
  1  8  1  0  0  0
  1  9  1  0  0  0
  2  3  1  0  0  0
  2 10  1  0  0  0
  3  4  2  0  0  0
  3  7  1  0  0  0
  4  5  1  0  0  0
  4 11  1  0  0  0
  5  8  2  0  0  0
  5  6  1  0  0  0
  6 12  1  0  0  0
  6 13  1  0  0  0
  6 14  1  0  0  0
  7 15  1  0  0  0
  7 16  1  0  0  0
  7 17  1  0  0  0
  8 18  1  0  0  0
  9 19  1  0  0  0
  9 20  1  0  0  0
  9 21  1  0  0  0
M  END