116
 OpenBabel11300909453D

 12 12  0  0  0  0  0  0  0  0999 V2000
   -0.6856    1.2033    0.0007 C   0  0  0  0  0
   -1.3907    0.0013    0.0014 C   0  0  0  0  0
   -0.6871   -1.2015    0.0008 C   0  0  0  0  0
    0.7062   -1.2111   -0.0004 C   0  0  0  0  0
    1.3963   -0.0004   -0.0010 C   0  0  0  0  0
    3.1170   -0.0015   -0.0026 Cl  0  0  0  0  0
   -1.5484   -2.6912    0.0017 Cl  0  0  0  0  0
    0.7078    1.2111   -0.0005 C   0  0  0  0  0
   -1.5450    2.6940    0.0014 Cl  0  0  0  0  0
   -2.4776    0.0020    0.0023 H   0  0  0  0  0
    1.2492   -2.1527   -0.0008 H   0  0  0  0  0
    1.2518    2.1519   -0.0010 H   0  0  0  0  0
  1  2  2  0  0  0
  1  8  1  0  0  0
  1  9  1  0  0  0
  2  3  1  0  0  0
  2 10  1  0  0  0
  3  4  2  0  0  0
  3  7  1  0  0  0
  4  5  1  0  0  0
  4 11  1  0  0  0
  5  8  2  0  0  0
  5  6  1  0  0  0
  8 12  1  0  0  0
M  END