121
 OpenBabel11300909453D

 12 12  0  0  0  0  0  0  0  0999 V2000
   -1.3938   -0.0738   -0.0228 C   0  0  0  0  0
   -0.7675    1.1719   -0.0152 C   0  0  0  0  0
    0.6260    1.2466    0.0021 C   0  0  0  0  0
    1.3868    0.0767    0.0116 C   0  0  0  0  0
    0.7567   -1.1684    0.0039 C   0  0  0  0  0
   -0.6369   -1.2450   -0.0134 C   0  0  0  0  0
   -3.1116   -0.1668   -0.0441 Cl  0  0  0  0  0
   -1.3572    2.0846   -0.0225 H   0  0  0  0  0
    1.1184    2.2157    0.0081 H   0  0  0  0  0
    2.4728    0.1355    0.0250 H   0  0  0  0  0
    1.3508   -2.0789    0.0113 H   0  0  0  0  0
   -1.1245   -2.2157   -0.0193 H   0  0  0  0  0
  1  2  2  0  0  0
  1  6  1  0  0  0
  1  7  1  0  0  0
  2  3  1  0  0  0
  2  8  1  0  0  0
  3  4  2  0  0  0
  3  9  1  0  0  0
  4  5  1  0  0  0
  4 10  1  0  0  0
  5  6  2  0  0  0
  5 11  1  0  0  0
  6 12  1  0  0  0
M  END