130
 OpenBabel11300909393D

 16 15  0  0  0  0  0  0  0  0999 V2000
    1.0401   -0.0890    0.0191 N   0  0  0  0  0
    2.4977   -0.1377    0.0001 C   0  0  0  0  0
    3.0770    1.2752    0.0472 C   0  0  0  0  0
    4.6048    1.2462    0.0397 C   0  0  0  0  0
    5.1889    2.6498    0.0866 C   0  0  0  0  0
    0.6694   -1.0346   -0.0659 H   0  0  0  0  0
    0.7031    0.4243   -0.7945 H   0  0  0  0  0
    2.8315   -0.6541   -0.9069 H   0  0  0  0  0
    2.8462   -0.7170    0.8615 H   0  0  0  0  0
    2.7247    1.7906    0.9504 H   0  0  0  0  0
    2.7179    1.8537   -0.8140 H   0  0  0  0  0
    4.9637    0.7382   -0.8624 H   0  0  0  0  0
    4.9711    0.6765    0.9012 H   0  0  0  0  0
    4.8680    3.2376   -0.7796 H   0  0  0  0  0
    6.2829    2.6056    0.0806 H   0  0  0  0  0
    4.8752    3.1754    0.9943 H   0  0  0  0  0
  1  2  1  0  0  0
  1  6  1  0  0  0
  1  7  1  0  0  0
  2  3  1  0  0  0
  2  8  1  0  0  0
  2  9  1  0  0  0
  3  4  1  0  0  0
  3 10  1  0  0  0
  3 11  1  0  0  0
  4  5  1  0  0  0
  4 12  1  0  0  0
  4 13  1  0  0  0
  5 14  1  0  0  0
  5 15  1  0  0  0
  5 16  1  0  0  0
M  END