131
 OpenBabel11300909393D

 11 10  0  0  0  0  0  0  0  0999 V2000
    4.0830    2.0511   -2.7221 O   0  0  0  0  0
    3.2793    2.4457   -1.8947 C   0  0  0  0  0
    3.3740    2.3302   -0.5466 O   0  0  0  0  0
    4.5474    1.6600   -0.0635 C   0  0  0  0  0
    5.6878    2.6481    0.0952 C   0  0  0  0  0
    2.3414    2.9677   -2.1413 H   0  0  0  0  0
    4.8276    0.8264   -0.7180 H   0  0  0  0  0
    4.2932    1.2316    0.9116 H   0  0  0  0  0
    5.9530    3.1004   -0.8656 H   0  0  0  0  0
    6.5736    2.1553    0.5059 H   0  0  0  0  0
    5.3973    3.4659    0.7629 H   0  0  0  0  0
  1  2  2  0  0  0
  2  3  1  0  0  0
  2  6  1  0  0  0
  3  4  1  0  0  0
  4  5  1  0  0  0
  4  7  1  0  0  0
  4  8  1  0  0  0
  5  9  1  0  0  0
  5 10  1  0  0  0
  5 11  1  0  0  0
M  END