137
 OpenBabel11300909453D

 13 12  0  0  0  0  0  0  0  0999 V2000
    2.7180    2.1811    0.9253 O   0  0  0  0  0
    1.4760    2.7482    0.9068 C   0  0  0  0  0
    0.3352    2.2664    0.4011 C   0  0  0  0  0
    2.8552    0.8857    0.3309 C   0  0  0  0  0
    4.3093    0.4591    0.4611 C   0  0  0  0  0
    4.5681   -1.1483   -0.2501 Cl  0  0  0  0  0
    1.5202    3.7196    1.3899 H   0  0  0  0  0
    0.2603    1.3032   -0.0857 H   0  0  0  0  0
   -0.5765    2.8537    0.4706 H   0  0  0  0  0
    2.5753    0.9331   -0.7285 H   0  0  0  0  0
    2.2089    0.1695    0.8528 H   0  0  0  0  0
    4.6124    0.4246    1.5127 H   0  0  0  0  0
    4.9703    1.1710   -0.0444 H   0  0  0  0  0
  1  4  1  0  0  0
  1  2  1  0  0  0
  2  3  2  0  0  0
  2  7  1  0  0  0
  3  8  1  0  0  0
  3  9  1  0  0  0
  4  5  1  0  0  0
  4 10  1  0  0  0
  4 11  1  0  0  0
  5  6  1  0  0  0
  5 12  1  0  0  0
  5 13  1  0  0  0
M  END