143
 OpenBabel11300909453D

 21 20  0  0  0  0  0  0  0  0999 V2000
   -3.5297   -1.8144    2.3757 O   0  0  0  0  0
   -2.3479   -1.0289    2.2998 C   0  0  0  0  0
   -1.5368   -1.4761    1.0921 C   0  0  0  0  0
   -0.2485   -0.6691    0.9479 C   0  0  0  0  0
    0.5599   -1.1242   -0.2684 C   0  0  0  0  0
    1.8447   -0.3100   -0.4189 C   0  0  0  0  0
    2.6526   -0.7625   -1.6247 C   0  0  0  0  0
   -4.0269   -1.5072    3.1528 H   0  0  0  0  0
   -1.7791   -1.1657    3.2251 H   0  0  0  0  0
   -2.6349    0.0237    2.2100 H   0  0  0  0  0
   -1.3073   -2.5449    1.1843 H   0  0  0  0  0
   -2.1494   -1.3781    0.1872 H   0  0  0  0  0
   -0.4913    0.3961    0.8501 H   0  0  0  0  0
    0.3586   -0.7804    1.8548 H   0  0  0  0  0
   -0.0493   -1.0194   -1.1744 H   0  0  0  0  0
    0.8082   -2.1878   -0.1672 H   0  0  0  0  0
    2.4583   -0.4113    0.4837 H   0  0  0  0  0
    1.6008    0.7531   -0.5281 H   0  0  0  0  0
    2.9466   -1.8126   -1.5281 H   0  0  0  0  0
    3.5630   -0.1622   -1.7180 H   0  0  0  0  0
    2.0756   -0.6505   -2.5484 H   0  0  0  0  0
  1  5  1  0  0  0
  1  2  1  0  0  0
  2  3  1  0  0  0
  2  8  1  0  0  0
  2  9  1  0  0  0
  3  4  1  0  0  0
  3 10  1  0  0  0
  3 11  1  0  0  0
  4 12  1  0  0  0
  4 13  1  0  0  0
  4 14  1  0  0  0
  5  6  1  0  0  0
  5 15  1  0  0  0
  5 16  1  0  0  0
  6  7  1  0  0  0
  6 17  1  0  0  0
  6 18  1  0  0  0
  7 19  1  0  0  0
  7 20  1  0  0  0
  7 21  1  0  0  0
M  END