145
 OpenBabel11300909393D

 26 25  0  0  0  0  0  0  0  0999 V2000
    1.0664   -0.0238   -0.0020 C   0  0  0  0  0
    0.5327    1.4085    0.0136 C   0  0  0  0  0
   -0.9967    1.4328    0.0042 C   0  0  0  0  0
   -1.5297    2.8665   -0.0010 C   0  0  0  0  0
   -3.0590    2.8925    0.0035 C   0  0  0  0  0
   -3.5902    4.3254   -0.0255 C   0  0  0  0  0
   -5.1102    4.3569   -0.0116 C   0  0  0  0  0
    2.5864   -0.0519    0.0174 C   0  0  0  0  0
    0.6853   -0.5734    0.8665 H   0  0  0  0  0
    0.7087   -0.5446   -0.8981 H   0  0  0  0  0
    0.9147    1.9515   -0.8595 H   0  0  0  0  0
    0.9023    1.9289    0.9050 H   0  0  0  0  0
   -1.3777    0.9014    0.8849 H   0  0  0  0  0
   -1.3679    0.9004   -0.8803 H   0  0  0  0  0
   -1.1555    3.3932   -0.8873 H   0  0  0  0  0
   -1.1512    3.4029    0.8777 H   0  0  0  0  0
   -3.4321    2.3797    0.8984 H   0  0  0  0  0
   -3.4392    2.3426   -0.8660 H   0  0  0  0  0
   -3.2285    4.8380   -0.9245 H   0  0  0  0  0
   -3.2111    4.8815    0.8398 H   0  0  0  0  0
   -5.5217    3.8317   -0.8794 H   0  0  0  0  0
   -5.4681    5.3909   -0.0391 H   0  0  0  0  0
   -5.5038    3.8852    0.8944 H   0  0  0  0  0
    2.9758    0.4293    0.9203 H   0  0  0  0  0
    2.9997    0.4661   -0.8539 H   0  0  0  0  0
    2.9467   -1.0852    0.0009 H   0  0  0  0  0
  1  8  1  0  0  0
  1  2  1  0  0  0
  1  9  1  0  0  0
  1 10  1  0  0  0
  2  3  1  0  0  0
  2 11  1  0  0  0
  2 12  1  0  0  0
  3  4  1  0  0  0
  3 13  1  0  0  0
  3 14  1  0  0  0
  4  5  1  0  0  0
  4 15  1  0  0  0
  4 16  1  0  0  0
  5  6  1  0  0  0
  5 17  1  0  0  0
  5 18  1  0  0  0
  6  7  1  0  0  0
  6 19  1  0  0  0
  6 20  1  0  0  0
  7 21  1  0  0  0
  7 22  1  0  0  0
  7 23  1  0  0  0
  8 24  1  0  0  0
  8 25  1  0  0  0
  8 26  1  0  0  0
M  END