146
 OpenBabel11300909453D

 24 23  0  0  0  0  0  0  0  0999 V2000
    0.9286    0.0802   -0.0494 C   0  0  0  0  0
    0.1716   -0.1835   -1.1209 C   0  0  0  0  0
    2.4301    0.0680   -0.0594 C   0  0  0  0  0
    2.9915    1.4883    0.0190 C   0  0  0  0  0
    4.5210    1.4851    0.0150 C   0  0  0  0  0
    5.0759    2.9101    0.0226 C   0  0  0  0  0
    6.6041    2.9133    0.0110 C   0  0  0  0  0
    7.1568    4.3297    0.0049 C   0  0  0  0  0
    0.4448    0.3161    0.8966 H   0  0  0  0  0
    0.6110   -0.4170   -2.0858 H   0  0  0  0  0
   -0.9119   -0.1600   -1.0558 H   0  0  0  0  0
    2.8044   -0.4289   -0.9628 H   0  0  0  0  0
    2.7812   -0.5243    0.7939 H   0  0  0  0  0
    2.6284    1.9848    0.9280 H   0  0  0  0  0
    2.6255    2.0748   -0.8338 H   0  0  0  0  0
    4.8861    0.9549   -0.8727 H   0  0  0  0  0
    4.8892    0.9399    0.8924 H   0  0  0  0  0
    4.7134    3.4420    0.9107 H   0  0  0  0  0
    4.7023    3.4537   -0.8540 H   0  0  0  0  0
    6.9712    2.3805   -0.8740 H   0  0  0  0  0
    6.9844    2.3816    0.8911 H   0  0  0  0  0
    6.8199    4.8780   -0.8806 H   0  0  0  0  0
    8.2509    4.3096   -0.0039 H   0  0  0  0  0
    6.8337    4.8805    0.8938 H   0  0  0  0  0
  1  3  1  0  0  0
  1  2  2  0  0  0
  1  9  1  0  0  0
  2 10  1  0  0  0
  2 11  1  0  0  0
  3  4  1  0  0  0
  3 12  1  0  0  0
  3 13  1  0  0  0
  4  5  1  0  0  0
  4 14  1  0  0  0
  4 15  1  0  0  0
  5  6  1  0  0  0
  5 16  1  0  0  0
  5 17  1  0  0  0
  6  7  1  0  0  0
  6 18  1  0  0  0
  6 19  1  0  0  0
  7  8  1  0  0  0
  7 20  1  0  0  0
  7 21  1  0  0  0
  8 22  1  0  0  0
  8 23  1  0  0  0
  8 24  1  0  0  0
M  END