148
 OpenBabel11300909453D

 19 18  0  0  0  0  0  0  0  0999 V2000
    0.9976   -0.0815   -0.0976 O   0  0  0  0  0
    0.5982    0.2459   -1.4292 C   0  0  0  0  0
   -0.9169    0.1435   -1.5510 C   0  0  0  0  0
   -1.4524   -1.5574   -1.5226 Cl  0  0  0  0  0
    2.4043    0.0193    0.0764 C   0  0  0  0  0
    2.8668    1.3633   -0.0164 O   0  0  0  0  0
    2.3481    2.1764    1.0408 C   0  0  0  0  0
    2.8931    3.5864    0.8758 C   0  0  0  0  0
    2.2459    4.6710    2.1229 Cl  0  0  0  0  0
    1.0949   -0.4164   -2.1470 H   0  0  0  0  0
    0.8935    1.2793   -1.6456 H   0  0  0  0  0
   -1.2561    0.5732   -2.4979 H   0  0  0  0  0
   -1.4163    0.6551   -0.7223 H   0  0  0  0  0
    2.9205   -0.5799   -0.6821 H   0  0  0  0  0
    2.6686   -0.3969    1.0550 H   0  0  0  0  0
    2.6527    1.7595    2.0072 H   0  0  0  0  0
    1.2533    2.1927    0.9882 H   0  0  0  0  0
    2.6280    3.9923   -0.1072 H   0  0  0  0  0
    3.9861    3.5904    0.9443 H   0  0  0  0  0
  1  5  1  0  0  0
  1  2  1  0  0  0
  2  3  1  0  0  0
  2 10  1  0  0  0
  2 11  1  0  0  0
  3  4  1  0  0  0
  3 12  1  0  0  0
  3 13  1  0  0  0
  5  6  1  0  0  0
  5 14  1  0  0  0
  5 15  1  0  0  0
  6  7  1  0  0  0
  7  8  1  0  0  0
  7 16  1  0  0  0
  7 17  1  0  0  0
  8  9  1  0  0  0
  8 18  1  0  0  0
  8 19  1  0  0  0
M  END