150
 OpenBabel11300909453D

 30 30  0  0  0  0  0  0  0  0999 V2000
    8.2136    0.6435    2.1861 C   0  0  0  0  0
    7.7887    2.0131    2.1108 N   0  0  0  0  0
    6.6108    2.3789    1.5184 C   0  0  0  0  0
    5.8475    1.5977    0.9628 O   0  0  0  0  0
    6.4190    3.7384    1.6964 O   0  0  0  0  0
    5.2471    4.2095    1.0920 C   0  0  0  0  0
    4.1404    4.4331    1.9132 C   0  0  0  0  0
    2.9697    4.9365    1.3537 C   0  0  0  0  0
    2.9153    5.2065   -0.0135 C   0  0  0  0  0
    4.0392    5.0013   -0.8242 C   0  0  0  0  0
    5.2310    4.5287   -0.2724 C   0  0  0  0  0
    6.4051    4.3467   -0.9503 O   0  0  0  0  0
    6.5903    5.0068   -2.2069 C   0  0  0  0  0
    6.7931    6.5086   -2.0076 C   0  0  0  0  0
    7.8449    4.4025   -2.8352 C   0  0  0  0  0
    9.2853    0.6214    2.3964 H   0  0  0  0  0
    8.0068    0.1294    1.2436 H   0  0  0  0  0
    7.6681    0.1506    2.9953 H   0  0  0  0  0
    8.2686    2.7325    2.6329 H   0  0  0  0  0
    4.1916    4.2139    2.9750 H   0  0  0  0  0
    2.0985    5.1120    1.9790 H   0  0  0  0  0
    1.9958    5.5843   -0.4537 H   0  0  0  0  0
    3.9462    5.2225   -1.8813 H   0  0  0  0  0
    5.7569    4.8043   -2.8885 H   0  0  0  0  0
    7.6013    6.7010   -1.2932 H   0  0  0  0  0
    5.8962    6.9837   -1.5981 H   0  0  0  0  0
    7.0329    7.0045   -2.9531 H   0  0  0  0  0
    8.7162    4.5401   -2.1849 H   0  0  0  0  0
    8.0595    4.8544   -3.8089 H   0  0  0  0  0
    7.7220    3.3229   -2.9726 H   0  0  0  0  0
  1  2  1  0  0  0
  1 16  1  0  0  0
  1 17  1  0  0  0
  1 18  1  0  0  0
  2  3  1  0  0  0
  2 19  1  0  0  0
  3  5  1  0  0  0
  3  4  2  0  0  0
  5  6  1  0  0  0
  6  7  2  0  0  0
  6 11  1  0  0  0
  7  8  1  0  0  0
  7 20  1  0  0  0
  8  9  2  0  0  0
  8 21  1  0  0  0
  9 10  1  0  0  0
  9 22  1  0  0  0
 10 11  2  0  0  0
 10 23  1  0  0  0
 11 12  1  0  0  0
 12 13  1  0  0  0
 13 15  1  0  0  0
 13 14  1  0  0  0
 13 24  1  0  0  0
 14 25  1  0  0  0
 14 26  1  0  0  0
 14 27  1  0  0  0
 15 28  1  0  0  0
 15 29  1  0  0  0
 15 30  1  0  0  0
M  END