157
 OpenBabel11300909453D

 24 26  0  0  0  0  0  0  0  0999 V2000
   -1.2247   -0.7047    0.0215 C   0  0  0  0  0
   -1.2249    0.7067    0.0207 C   0  0  0  0  0
   -2.4503    1.3933    0.0275 C   0  0  0  0  0
   -3.6596    0.6964    0.0384 C   0  0  0  0  0
   -3.6592   -0.6951    0.0396 C   0  0  0  0  0
    0.0002    1.3941    0.0165 C   0  0  0  0  0
    1.2256    0.7069    0.0198 C   0  0  0  0  0
    1.2255   -0.7047    0.0211 C   0  0  0  0  0
    2.4513   -1.3912    0.0278 C   0  0  0  0  0
    3.6605   -0.6943    0.0373 C   0  0  0  0  0
    3.6603    0.6972    0.0363 C   0  0  0  0  0
    2.4509    1.3938    0.0262 C   0  0  0  0  0
   -2.4497   -1.3915    0.0297 C   0  0  0  0  0
    0.0003   -1.3921    0.0183 C   0  0  0  0  0
   -2.4712    2.4806    0.0273 H   0  0  0  0  0
   -4.6004    1.2409    0.0472 H   0  0  0  0  0
   -4.5998   -1.2400    0.0493 H   0  0  0  0  0
    0.0002    2.4825    0.0153 H   0  0  0  0  0
    2.4719   -2.4786    0.0292 H   0  0  0  0  0
    4.6010   -1.2388    0.0464 H   0  0  0  0  0
    4.6007    1.2419    0.0448 H   0  0  0  0  0
    2.4714    2.4813    0.0262 H   0  0  0  0  0
   -2.4704   -2.4788    0.0310 H   0  0  0  0  0
    0.0008   -2.4804    0.0188 H   0  0  0  0  0
  1 13  1  0  0  0
  1 14  1  0  0  0
  1  2  2  0  0  0
  2  6  1  0  0  0
  2  3  1  0  0  0
  3  4  2  0  0  0
  3 15  1  0  0  0
  4  5  1  0  0  0
  4 16  1  0  0  0
  5 13  2  0  0  0
  5 17  1  0  0  0
  6  7  2  0  0  0
  6 18  1  0  0  0
  7  8  1  0  0  0
  7 12  1  0  0  0
  8 14  2  0  0  0
  8  9  1  0  0  0
  9 10  2  0  0  0
  9 19  1  0  0  0
 10 11  1  0  0  0
 10 20  1  0  0  0
 11 12  2  0  0  0
 11 21  1  0  0  0
 12 22  1  0  0  0
 13 23  1  0  0  0
 14 24  1  0  0  0
M  END