159
 OpenBabel11300909403D

 12 12  0  0  0  0  0  0  0  0999 V2000
   -0.6151   -1.2375   -0.0120 C   0  0  0  0  0
   -1.3817   -0.0736   -0.0041 C   0  0  0  0  0
   -0.7504    1.1724   -0.0106 C   0  0  0  0  0
    0.6462    1.2515   -0.0248 C   0  0  0  0  0
    1.4101    0.0775   -0.0326 C   0  0  0  0  0
    3.1378    0.0992   -0.0503 Cl  0  0  0  0  0
    1.3613    2.8237   -0.0321 Cl  0  0  0  0  0
    0.7766   -1.1688   -0.0262 C   0  0  0  0  0
   -1.3941   -2.7706   -0.0040 Cl  0  0  0  0  0
   -2.4677   -0.1282    0.0070 H   0  0  0  0  0
   -1.3530    2.0784   -0.0044 H   0  0  0  0  0
    1.3666   -2.0818   -0.0322 H   0  0  0  0  0
  1  2  2  0  0  0
  1  8  1  0  0  0
  1  9  1  0  0  0
  2  3  1  0  0  0
  2 10  1  0  0  0
  3  4  2  0  0  0
  3 11  1  0  0  0
  4  5  1  0  0  0
  4  7  1  0  0  0
  5  8  2  0  0  0
  5  6  1  0  0  0
  8 12  1  0  0  0
M  END