161
 OpenBabel11300909453D

 19 19  0  0  0  0  0  0  0  0999 V2000
    0.9608   -0.0572    0.1040 N   0  0  0  0  0
    0.3937   -1.1549    0.1968 O   0  0  0  0  0
    0.3869    1.0400    0.1371 O   0  0  0  0  0
    2.4217   -0.0585   -0.0525 C   0  0  0  0  0
    3.1123    1.1580   -0.1257 C   0  0  0  0  0
    4.5040    1.1624   -0.2732 C   0  0  0  0  0
    5.2248   -0.0402   -0.3539 C   0  0  0  0  0
    4.5047   -1.2482   -0.2611 C   0  0  0  0  0
    5.1923   -2.5330   -0.3138 N   0  0  0  0  0
    4.7854   -3.3506   -1.1491 O   0  0  0  0  0
    6.1124   -2.7196    0.4924 O   0  0  0  0  0
    6.7196    0.0115   -0.5152 C   0  0  0  0  0
    3.1095   -1.2738   -0.1200 C   0  0  0  0  0
    2.5859    2.1103   -0.0704 H   0  0  0  0  0
    5.0229    2.1195   -0.3289 H   0  0  0  0  0
    7.0523    1.0138   -0.8056 H   0  0  0  0  0
    7.0492   -0.6725   -1.3038 H   0  0  0  0  0
    7.2126   -0.2455    0.4270 H   0  0  0  0  0
    2.5822   -2.2248   -0.0610 H   0  0  0  0  0
  1  4  1  0  0  0
  1  3  2  0  0  0
  1  2  2  0  0  0
  4  5  2  0  0  0
  4 13  1  0  0  0
  5  6  1  0  0  0
  5 14  1  0  0  0
  6  7  2  0  0  0
  6 15  1  0  0  0
  7  8  1  0  0  0
  7 12  1  0  0  0
  8 13  2  0  0  0
  8  9  1  0  0  0
  9 11  2  0  0  0
  9 10  2  0  0  0
 12 16  1  0  0  0
 12 17  1  0  0  0
 12 18  1  0  0  0
 13 19  1  0  0  0
M  END