165
 OpenBabel11300909463D

 24 25  0  0  0  0  0  0  0  0999 V2000
    1.2678    0.4808    0.0922 N   0  0  0  0  0
    0.4503    1.6127    0.2524 C   0  0  0  0  0
    0.8852    2.7761    0.8974 C   0  0  0  0  0
    0.0553    3.8967    1.0006 C   0  0  0  0  0
   -1.2224    3.8715    0.4482 C   0  0  0  0  0
   -1.6702    2.7257   -0.2034 C   0  0  0  0  0
   -0.8385    1.6065   -0.3004 C   0  0  0  0  0
    2.6621    0.3404   -0.0239 C   0  0  0  0  0
    3.2522   -0.8813    0.3325 C   0  0  0  0  0
    4.6373   -1.0598    0.2708 C   0  0  0  0  0
    5.4559   -0.0132   -0.1439 C   0  0  0  0  0
    4.8888    1.2093   -0.4931 C   0  0  0  0  0
    3.5030    1.3838   -0.4268 C   0  0  0  0  0
    0.7570   -0.3850   -0.0347 H   0  0  0  0  0
    1.8686    2.8108    1.3580 H   0  0  0  0  0
    0.4093    4.7853    1.5159 H   0  0  0  0  0
   -1.8670    4.7432    0.5253 H   0  0  0  0  0
   -2.6642    2.7025   -0.6420 H   0  0  0  0  0
   -1.2020    0.7287   -0.8282 H   0  0  0  0  0
    2.6331   -1.7063    0.6754 H   0  0  0  0  0
    5.0743   -2.0141    0.5517 H   0  0  0  0  0
    6.5329   -0.1489   -0.1943 H   0  0  0  0  0
    5.5212    2.0295   -0.8222 H   0  0  0  0  0
    3.0853    2.3398   -0.7300 H   0  0  0  0  0
  1  8  1  0  0  0
  1  2  1  0  0  0
  1 14  1  0  0  0
  2  3  2  0  0  0
  2  7  1  0  0  0
  3  4  1  0  0  0
  3 15  1  0  0  0
  4  5  2  0  0  0
  4 16  1  0  0  0
  5  6  1  0  0  0
  5 17  1  0  0  0
  6  7  2  0  0  0
  6 18  1  0  0  0
  7 19  1  0  0  0
  8  9  2  0  0  0
  8 13  1  0  0  0
  9 10  1  0  0  0
  9 20  1  0  0  0
 10 11  2  0  0  0
 10 21  1  0  0  0
 11 12  1  0  0  0
 11 22  1  0  0  0
 12 13  2  0  0  0
 12 23  1  0  0  0
 13 24  1  0  0  0
M  END