169
 OpenBabel11300909403D

 14 14  0  0  0  0  0  0  0  0999 V2000
    0.7130    1.2160   -0.1978 O   0  0  0  0  0
    1.3899    0.0307    0.2460 C   0  0  0  0  0
    0.6727   -1.2193   -0.2621 C   0  0  0  0  0
   -0.6907   -1.2356    0.1864 O   0  0  0  0  0
   -1.3678   -0.0500   -0.2576 C   0  0  0  0  0
   -0.6501    1.1993    0.2516 C   0  0  0  0  0
    1.4282    0.0417    1.3413 H   0  0  0  0  0
    2.4151    0.0637   -0.1342 H   0  0  0  0  0
    1.1640   -2.1215    0.1142 H   0  0  0  0  0
    0.6780   -1.2550   -1.3577 H   0  0  0  0  0
   -2.3934   -0.0832    0.1225 H   0  0  0  0  0
   -1.4055   -0.0615   -1.3533 H   0  0  0  0  0
   -1.1418    2.1014   -0.1241 H   0  0  0  0  0
   -0.6554    1.2347    1.3472 H   0  0  0  0  0
  1  2  1  0  0  0
  1  6  1  0  0  0
  2  3  1  0  0  0
  2  7  1  0  0  0
  2  8  1  0  0  0
  3  4  1  0  0  0
  3  9  1  0  0  0
  3 10  1  0  0  0
  4  5  1  0  0  0
  5  6  1  0  0  0
  5 11  1  0  0  0
  5 12  1  0  0  0
  6 13  1  0  0  0
  6 14  1  0  0  0
M  END