170
 OpenBabel11300909403D

 32 31  0  0  0  0  0  0  0  0999 V2000
    1.0551   -0.0690   -0.0463 C   0  0  0  0  0
    0.5294    1.3655   -0.0096 C   0  0  0  0  0
   -1.0002    1.3974   -0.0163 C   0  0  0  0  0
   -1.5277    2.8331    0.0003 C   0  0  0  0  0
   -3.0570    2.8632    0.0080 C   0  0  0  0  0
   -3.5852    4.2987    0.0005 C   0  0  0  0  0
   -5.1144    4.3297    0.0230 C   0  0  0  0  0
   -5.6415    5.7640   -0.0058 C   0  0  0  0  0
   -7.1611    5.8000    0.0268 C   0  0  0  0  0
    2.5750   -0.1055   -0.0296 C   0  0  0  0  0
    0.6729   -0.6283    0.8148 H   0  0  0  0  0
    0.6937   -0.5743   -0.9487 H   0  0  0  0  0
    0.9128    1.9199   -0.8753 H   0  0  0  0  0
    0.9028    1.8722    0.8892 H   0  0  0  0  0
   -1.3819    0.8547    0.8570 H   0  0  0  0  0
   -1.3744    0.8796   -0.9078 H   0  0  0  0  0
   -1.1535    3.3712   -0.8789 H   0  0  0  0  0
   -1.1461    3.3553    0.8860 H   0  0  0  0  0
   -3.4299    2.3384    0.8961 H   0  0  0  0  0
   -3.4400    2.3273   -0.8689 H   0  0  0  0  0
   -3.2200    4.8189   -0.8935 H   0  0  0  0  0
   -3.1945    4.8393    0.8713 H   0  0  0  0  0
   -5.4783    3.8217    0.9246 H   0  0  0  0  0
   -5.5064    3.7771   -0.8396 H   0  0  0  0  0
   -5.2895    6.2714   -0.9114 H   0  0  0  0  0
   -5.2502    6.3226    0.8523 H   0  0  0  0  0
   -7.5850    5.2727   -0.8338 H   0  0  0  0  0
   -7.5164    6.8350   -0.0002 H   0  0  0  0  0
   -7.5450    5.3329    0.9396 H   0  0  0  0  0
    2.9691    0.3604    0.8796 H   0  0  0  0  0
    2.9904    0.4225   -0.8942 H   0  0  0  0  0
    2.9296   -1.1408   -0.0615 H   0  0  0  0  0
  1 10  1  0  0  0
  1  2  1  0  0  0
  1 11  1  0  0  0
  1 12  1  0  0  0
  2  3  1  0  0  0
  2 13  1  0  0  0
  2 14  1  0  0  0
  3  4  1  0  0  0
  3 15  1  0  0  0
  3 16  1  0  0  0
  4  5  1  0  0  0
  4 17  1  0  0  0
  4 18  1  0  0  0
  5  6  1  0  0  0
  5 19  1  0  0  0
  5 20  1  0  0  0
  6  7  1  0  0  0
  6 21  1  0  0  0
  6 22  1  0  0  0
  7  8  1  0  0  0
  7 23  1  0  0  0
  7 24  1  0  0  0
  8  9  1  0  0  0
  8 25  1  0  0  0
  8 26  1  0  0  0
  9 27  1  0  0  0
  9 28  1  0  0  0
  9 29  1  0  0  0
 10 30  1  0  0  0
 10 31  1  0  0  0
 10 32  1  0  0  0
M  END