185
 OpenBabel11300909463D

 30 33  0  0  0  0  0  0  0  0999 V2000
    4.1973   -1.2342    0.0007 C   0  0  0  0  0
    4.6907    0.0603    0.0002 C   0  0  0  0  0
    3.8009    1.1294   -0.0002 C   0  0  0  0  0
    2.4109    0.9178   -0.0000 C   0  0  0  0  0
    1.5550    2.0137   -0.0004 C   0  0  0  0  0
    0.1719    1.8397   -0.0002 C   0  0  0  0  0
   -0.4334    0.5654    0.0004 C   0  0  0  0  0
   -1.8694    0.3926    0.0007 C   0  0  0  0  0
   -2.8132    1.4548    0.0003 C   0  0  0  0  0
   -4.1949    1.2360    0.0008 C   0  0  0  0  0
   -4.6883   -0.0585    0.0015 C   0  0  0  0  0
   -3.7986   -1.1276    0.0018 C   0  0  0  0  0
   -2.4085   -0.9163    0.0014 C   0  0  0  0  0
   -1.5526   -2.0120    0.0017 C   0  0  0  0  0
   -0.1694   -1.8383    0.0014 C   0  0  0  0  0
    0.4357   -0.5640    0.0008 C   0  0  0  0  0
    1.8721   -0.3909    0.0006 C   0  0  0  0  0
    2.8157   -1.4531    0.0009 C   0  0  0  0  0
    4.8808   -2.0791    0.0010 H   0  0  0  0  0
    5.7621    0.2397    0.0001 H   0  0  0  0  0
    4.2036    2.1407   -0.0006 H   0  0  0  0  0
    1.9512    3.0273   -0.0009 H   0  0  0  0  0
   -0.4269    2.7457   -0.0006 H   0  0  0  0  0
   -2.4873    2.4901   -0.0002 H   0  0  0  0  0
   -4.8779    2.0808    0.0005 H   0  0  0  0  0
   -5.7596   -0.2378    0.0019 H   0  0  0  0  0
   -4.2014   -2.1389    0.0024 H   0  0  0  0  0
   -1.9489   -3.0257    0.0023 H   0  0  0  0  0
    0.4293   -2.7442    0.0017 H   0  0  0  0  0
    2.4895   -2.4891    0.0013 H   0  0  0  0  0
  1  2  2  0  0  0
  1 18  1  0  0  0
  1 19  1  0  0  0
  2  3  1  0  0  0
  2 20  1  0  0  0
  3  4  2  0  0  0
  3 21  1  0  0  0
  4 17  1  0  0  0
  4  5  1  0  0  0
  5  6  2  0  0  0
  5 22  1  0  0  0
  6  7  1  0  0  0
  6 23  1  0  0  0
  7 16  1  0  0  0
  7  8  2  0  0  0
  8 13  1  0  0  0
  8  9  1  0  0  0
  9 10  2  0  0  0
  9 24  1  0  0  0
 10 11  1  0  0  0
 10 25  1  0  0  0
 11 12  2  0  0  0
 11 26  1  0  0  0
 12 13  1  0  0  0
 12 27  1  0  0  0
 13 14  2  0  0  0
 14 15  1  0  0  0
 14 28  1  0  0  0
 15 16  2  0  0  0
 15 29  1  0  0  0
 16 17  1  0  0  0
 17 18  2  0  0  0
 18 30  1  0  0  0
M  END