189
 OpenBabel11300909463D

 26 29  0  0  0  0  0  0  0  0999 V2000
    1.2311    0.1471   -0.9484 Cl  0  0  0  0  0
    2.7577   -0.2395   -0.3274 C   0  0  0  0  0
    3.6546   -1.1182   -0.8087 C   0  0  0  0  0
    3.5211   -2.0944   -2.1846 Cl  0  0  0  0  0
    4.9121   -1.0101    0.0650 C   0  0  0  0  0
    6.0269   -2.3541   -0.0060 Cl  0  0  0  0  0
    5.5145    0.3522   -0.4015 C   0  0  0  0  0
    6.8509    1.0053    0.0252 C   0  0  0  0  0
    6.4985    2.4812   -0.2741 C   0  0  0  0  0
    5.3188    2.5102    0.7282 C   0  0  0  0  0
    6.0941    2.0659    1.9243 C   0  0  0  0  0
    7.0111    1.1774    1.5046 C   0  0  0  0  0
    4.4437    1.3939    0.1210 C   0  0  0  0  0
    3.4162    0.4723    0.8580 C   0  0  0  0  0
    2.3509    1.3073    1.9627 Cl  0  0  0  0  0
    4.1716   -0.7786    1.4196 C   0  0  0  0  0
    5.1260   -0.6277    2.9090 Cl  0  0  0  0  0
    3.0417   -2.1744    1.8897 Cl  0  0  0  0  0
    5.5192    0.3707   -1.5043 H   0  0  0  0  0
    7.7405    0.6441   -0.4932 H   0  0  0  0  0
    7.3053    3.1857   -0.0271 H   0  0  0  0  0
    6.1953    2.6555   -1.3137 H   0  0  0  0  0
    4.8415    3.4862    0.8240 H   0  0  0  0  0
    5.9431    2.4049    2.9394 H   0  0  0  0  0
    7.7377    0.6707    2.1239 H   0  0  0  0  0
    3.9481    1.8561   -0.7492 H   0  0  0  0  0
  1  2  1  0  0  0
  2  3  2  0  0  0
  2 14  1  0  0  0
  3  5  1  0  0  0
  3  4  1  0  0  0
  5  7  1  0  0  0
  5  6  1  0  0  0
  5 16  1  0  0  0
  7  8  1  0  0  0
  7 13  1  0  0  0
  7 19  1  0  0  0
  8 12  1  0  0  0
  8  9  1  0  0  0
  8 20  1  0  0  0
  9 10  1  0  0  0
  9 21  1  0  0  0
  9 22  1  0  0  0
 10 11  1  0  0  0
 10 13  1  0  0  0
 10 23  1  0  0  0
 11 12  2  0  0  0
 11 24  1  0  0  0
 12 25  1  0  0  0
 13 14  1  0  0  0
 13 26  1  0  0  0
 14 15  1  0  0  0
 14 16  1  0  0  0
 16 18  1  0  0  0
 16 17  1  0  0  0
M  END