190
 OpenBabel11300909403D

 18 18  0  0  0  0  0  0  0  0999 V2000
    0.7290    1.2759   -0.2255 C   0  0  0  0  0
    1.4861    0.0169    0.2286 C   0  0  0  0  0
    0.7153   -1.2689   -0.1523 C   0  0  0  0  0
   -0.7718   -1.2908    0.2654 C   0  0  0  0  0
   -1.4806   -0.0074   -0.2294 C   0  0  0  0  0
   -3.2188   -0.0151    0.2376 Cl  0  0  0  0  0
   -0.9868   -1.5284    2.0364 Cl  0  0  0  0  0
    1.5904   -2.7546    0.3432 Cl  0  0  0  0  0
    1.8528    0.1571    1.9811 Cl  0  0  0  0  0
   -0.7473    1.2673    0.2364 C   0  0  0  0  0
   -1.5735    2.7675   -0.3271 Cl  0  0  0  0  0
    0.8622    1.3895   -2.0293 Cl  0  0  0  0  0
    1.2317    2.1743    0.1496 H   0  0  0  0  0
    2.4726   -0.0082   -0.2498 H   0  0  0  0  0
    0.7244   -1.3355   -1.2461 H   0  0  0  0  0
   -1.2545   -2.1601   -0.1974 H   0  0  0  0  0
   -1.5007   -0.0342   -1.3251 H   0  0  0  0  0
   -0.7816    1.3325    1.3303 H   0  0  0  0  0
  1  2  1  0  0  0
  1 10  1  0  0  0
  1 12  1  0  0  0
  1 13  1  0  0  0
  2  3  1  0  0  0
  2  9  1  0  0  0
  2 14  1  0  0  0
  3  4  1  0  0  0
  3  8  1  0  0  0
  3 15  1  0  0  0
  4  5  1  0  0  0
  4  7  1  0  0  0
  4 16  1  0  0  0
  5 10  1  0  0  0
  5  6  1  0  0  0
  5 17  1  0  0  0
 10 11  1  0  0  0
 10 18  1  0  0  0
M  END