196
 OpenBabel11300909463D

 21 21  0  0  0  0  0  0  0  0999 V2000
    0.0115   -1.4263    0.1276 C   0  0  0  0  0
    1.2422   -0.7280    0.1017 C   0  0  0  0  0
    1.2286    0.6804   -0.0723 C   0  0  0  0  0
    0.0037    1.3657   -0.1469 C   0  0  0  0  0
   -1.2009    0.6800   -0.0815 C   0  0  0  0  0
    2.4783    1.5191   -0.1710 C   0  0  0  0  0
    2.5684   -1.4365    0.2210 C   0  0  0  0  0
   -1.1951   -0.7037    0.0452 C   0  0  0  0  0
   -0.1276   -2.9223    0.2260 C   0  0  0  0  0
   -0.0101    2.4480   -0.2610 H   0  0  0  0  0
   -2.1414    1.2195   -0.1401 H   0  0  0  0  0
    3.3912    0.9276   -0.2702 H   0  0  0  0  0
    2.5745    2.1499    0.7173 H   0  0  0  0  0
    2.4251    2.1604   -1.0592 H   0  0  0  0  0
    2.4898   -2.4658    0.5745 H   0  0  0  0  0
    3.2030   -0.9316    0.9569 H   0  0  0  0  0
    3.0748   -1.4492   -0.7505 H   0  0  0  0  0
   -2.1476   -1.2307    0.0775 H   0  0  0  0  0
    0.8184   -3.4633    0.2600 H   0  0  0  0  0
   -0.6716   -3.2984   -0.6493 H   0  0  0  0  0
   -0.6901   -3.1858    1.1297 H   0  0  0  0  0
  1  2  2  0  0  0
  1  8  1  0  0  0
  1  9  1  0  0  0
  2  3  1  0  0  0
  2  7  1  0  0  0
  3  4  2  0  0  0
  3  6  1  0  0  0
  4  5  1  0  0  0
  4 10  1  0  0  0
  5  8  2  0  0  0
  5 11  1  0  0  0
  6 12  1  0  0  0
  6 13  1  0  0  0
  6 14  1  0  0  0
  7 15  1  0  0  0
  7 16  1  0  0  0
  7 17  1  0  0  0
  8 18  1  0  0  0
  9 19  1  0  0  0
  9 20  1  0  0  0
  9 21  1  0  0  0
M  END