197
 OpenBabel11300909413D

 20 20  0  0  0  0  0  0  0  0999 V2000
    0.8890   -0.0122    0.0843 N   0  0  0  0  0
    0.3082    1.0799    0.1413 O   0  0  0  0  0
    0.3219   -1.1125    0.0554 O   0  0  0  0  0
    2.3587   -0.0043    0.0476 C   0  0  0  0  0
    3.0576   -1.2157   -0.0163 C   0  0  0  0  0
    4.4614   -1.1934   -0.0571 C   0  0  0  0  0
    5.1794   -2.4711   -0.1271 N   0  0  0  0  0
    6.4192   -2.4292   -0.1642 O   0  0  0  0  0
    4.5116   -3.5129   -0.1450 O   0  0  0  0  0
    5.1575    0.0286   -0.0322 C   0  0  0  0  0
    6.5232    0.1382   -0.0776 O   0  0  0  0  0
    4.4487    1.2410    0.0413 C   0  0  0  0  0
    5.1748    2.5596    0.0589 C   0  0  0  0  0
    3.0452    1.2179    0.0752 C   0  0  0  0  0
    2.5166   -2.1612   -0.0364 H   0  0  0  0  0
    6.9408   -0.7483   -0.1256 H   0  0  0  0  0
    5.9236    2.5739    0.8577 H   0  0  0  0  0
    4.4881    3.3927    0.2418 H   0  0  0  0  0
    5.6657    2.7313   -0.9043 H   0  0  0  0  0
    2.4967    2.1587    0.1228 H   0  0  0  0  0
  1  4  1  0  0  0
  1  3  2  0  0  0
  1  2  2  0  0  0
  4  5  2  0  0  0
  4 14  1  0  0  0
  5  6  1  0  0  0
  5 15  1  0  0  0
  6 10  2  0  0  0
  6  7  1  0  0  0
  7  9  2  0  0  0
  7  8  2  0  0  0
 10 12  1  0  0  0
 10 11  1  0  0  0
 11 16  1  0  0  0
 12 14  2  0  0  0
 12 13  1  0  0  0
 13 17  1  0  0  0
 13 18  1  0  0  0
 13 19  1  0  0  0
 14 20  1  0  0  0
M  END