200
 OpenBabel11300909413D

 24 25  0  0  0  0  0  0  0  0999 V2000
    0.8627    0.1232    0.0639 C   0  0  0  0  0
    2.3583   -0.0273    0.0000 C   0  0  0  0  0
    3.1115    1.1649   -0.0243 C   0  0  0  0  0
    4.5146    1.1595   -0.0831 C   0  0  0  0  0
    5.2560    2.3531   -0.1115 C   0  0  0  0  0
    6.6502    2.3252   -0.1760 C   0  0  0  0  0
    7.3192    1.1061   -0.2126 C   0  0  0  0  0
    6.5951   -0.0867   -0.1826 C   0  0  0  0  0
    5.1911   -0.0732   -0.1164 C   0  0  0  0  0
    4.4437   -1.2614   -0.0809 C   0  0  0  0  0
    3.0348   -1.2589   -0.0131 C   0  0  0  0  0
    2.3605   -2.6035    0.0190 C   0  0  0  0  0
    0.3181   -0.8136   -0.0581 H   0  0  0  0  0
    0.5223    0.7872   -0.7386 H   0  0  0  0  0
    0.5746    0.5578    1.0274 H   0  0  0  0  0
    2.5864    2.1187    0.0008 H   0  0  0  0  0
    4.7496    3.3148   -0.0844 H   0  0  0  0  0
    7.2113    3.2558   -0.1982 H   0  0  0  0  0
    8.4045    1.0810   -0.2640 H   0  0  0  0  0
    7.1338   -1.0306   -0.2111 H   0  0  0  0  0
    4.9665   -2.2168   -0.1046 H   0  0  0  0  0
    1.2849   -2.5551    0.1868 H   0  0  0  0  0
    2.7770   -3.2074    0.8328 H   0  0  0  0  0
    2.5290   -3.1245   -0.9292 H   0  0  0  0  0
  1  2  1  0  0  0
  1 13  1  0  0  0
  1 14  1  0  0  0
  1 15  1  0  0  0
  2 11  1  0  0  0
  2  3  2  0  0  0
  3  4  1  0  0  0
  3 16  1  0  0  0
  4  9  1  0  0  0
  4  5  2  0  0  0
  5  6  1  0  0  0
  5 17  1  0  0  0
  6  7  2  0  0  0
  6 18  1  0  0  0
  7  8  1  0  0  0
  7 19  1  0  0  0
  8  9  2  0  0  0
  8 20  1  0  0  0
  9 10  1  0  0  0
 10 11  2  0  0  0
 10 21  1  0  0  0
 11 12  1  0  0  0
 12 22  1  0  0  0
 12 23  1  0  0  0
 12 24  1  0  0  0
M  END