201
 OpenBabel11300909413D

 12 12  0  0  0  0  0  0  0  0999 V2000
   -1.3968   -0.0742   -0.0335 C   0  0  0  0  0
   -0.7706    1.1723   -0.0216 C   0  0  0  0  0
    0.6236    1.2463    0.0042 C   0  0  0  0  0
    1.3848    0.0770    0.0180 C   0  0  0  0  0
    0.7548   -1.1677    0.0060 C   0  0  0  0  0
   -0.6388   -1.2455   -0.0197 C   0  0  0  0  0
   -3.4718   -0.1879   -0.0718 I   0  0  0  0  0
   -1.3505    2.0909   -0.0321 H   0  0  0  0  0
    1.1162    2.2150    0.0135 H   0  0  0  0  0
    2.4704    0.1356    0.0380 H   0  0  0  0  0
    1.3492   -2.0780    0.0168 H   0  0  0  0  0
   -1.1167   -2.2215   -0.0288 H   0  0  0  0  0
  1  2  2  0  0  0
  1  6  1  0  0  0
  1  7  1  0  0  0
  2  3  1  0  0  0
  2  8  1  0  0  0
  3  4  2  0  0  0
  3  9  1  0  0  0
  4  5  1  0  0  0
  4 10  1  0  0  0
  5  6  2  0  0  0
  5 11  1  0  0  0
  6 12  1  0  0  0
M  END