202
 OpenBabel11300909413D

 19 18  0  0  0  0  0  0  0  0999 V2000
    2.1781   -0.3183   -0.1827 O   0  0  0  0  0
    3.2661   -0.8461   -0.4078 C   0  0  0  0  0
    3.5524   -2.3054   -0.0986 C   0  0  0  0  0
    2.3629   -3.0124    0.5472 C   0  0  0  0  0
    2.6700   -4.4843    0.8182 C   0  0  0  0  0
    1.4946   -5.1854    1.4801 C   0  0  0  0  0
    4.4072   -0.0545   -0.9918 C   0  0  0  0  0
    4.4182   -2.3448    0.5722 H   0  0  0  0  0
    3.8170   -2.8017   -1.0393 H   0  0  0  0  0
    1.4857   -2.9334   -0.1071 H   0  0  0  0  0
    2.1018   -2.5085    1.4863 H   0  0  0  0  0
    3.5503   -4.5693    1.4656 H   0  0  0  0  0
    2.9085   -4.9932   -0.1229 H   0  0  0  0  0
    1.2601   -4.7289    2.4471 H   0  0  0  0  0
    1.7298   -6.2405    1.6510 H   0  0  0  0  0
    0.6008   -5.1342    0.8500 H   0  0  0  0  0
    4.0405    0.9120   -1.3464 H   0  0  0  0  0
    4.8357   -0.5948   -1.8390 H   0  0  0  0  0
    5.1675    0.1072   -0.2247 H   0  0  0  0  0
  1  2  2  0  0  0
  2  7  1  0  0  0
  2  3  1  0  0  0
  3  4  1  0  0  0
  3  8  1  0  0  0
  3  9  1  0  0  0
  4  5  1  0  0  0
  4 10  1  0  0  0
  4 11  1  0  0  0
  5  6  1  0  0  0
  5 12  1  0  0  0
  5 13  1  0  0  0
  6 14  1  0  0  0
  6 15  1  0  0  0
  6 16  1  0  0  0
  7 17  1  0  0  0
  7 18  1  0  0  0
  7 19  1  0  0  0
M  END