204
 OpenBabel11300909463D

 13 12  0  0  0  0  0  0  0  0999 V2000
    0.9258    0.1579   -0.0829 C   0  0  0  0  0
    0.1311   -0.3894    0.8465 C   0  0  0  0  0
    2.4252    0.1234   -0.0439 C   0  0  0  0  0
    2.9980    1.5084    0.0294 C   0  0  0  0  0
    3.8027    2.0457   -0.8964 C   0  0  0  0  0
    0.4717    0.6576   -0.9361 H   0  0  0  0  0
    0.5351   -0.9025    1.7138 H   0  0  0  0  0
   -0.9496   -0.3320    0.7558 H   0  0  0  0  0
    2.7853   -0.4027   -0.9364 H   0  0  0  0  0
    2.7818   -0.4470    0.8231 H   0  0  0  0  0
    2.7369    2.0983    0.9058 H   0  0  0  0  0
    4.0964    1.4971   -1.7868 H   0  0  0  0  0
    4.1866    3.0549   -0.7807 H   0  0  0  0  0
  1  3  1  0  0  0
  1  2  2  0  0  0
  1  6  1  0  0  0
  2  7  1  0  0  0
  2  8  1  0  0  0
  3  4  1  0  0  0
  3  9  1  0  0  0
  3 10  1  0  0  0
  4  5  2  0  0  0
  4 11  1  0  0  0
  5 12  1  0  0  0
  5 13  1  0  0  0
M  END