207
 OpenBabel11300909463D

 23 22  0  0  0  0  0  0  0  0999 V2000
    1.2715   -0.2504   -0.1606 O   0  0  0  0  0
    2.4223   -0.0503    0.2443 N   0  0  0  0  0
    2.8587    1.1382   -0.1201 N   0  0  0  0  0
    2.0956    2.2838    0.4233 C   0  0  0  0  0
    2.1732    2.4683    1.9465 C   0  0  0  0  0
    1.3602    3.6740    2.3961 C   0  0  0  0  0
    4.3095    1.3095    0.0737 C   0  0  0  0  0
    5.1299    0.4367   -0.8888 C   0  0  0  0  0
    6.6227    0.6691   -0.7084 C   0  0  0  0  0
    1.0418    2.2035    0.1225 H   0  0  0  0  0
    2.4507    3.2001   -0.0675 H   0  0  0  0  0
    3.2114    2.6111    2.2663 H   0  0  0  0  0
    1.7928    1.5767    2.4590 H   0  0  0  0  0
    1.7407    4.5942    1.9411 H   0  0  0  0  0
    1.4164    3.7851    3.4838 H   0  0  0  0  0
    0.3067    3.5632    2.1200 H   0  0  0  0  0
    4.6016    1.0962    1.1113 H   0  0  0  0  0
    4.5830    2.3549   -0.1241 H   0  0  0  0  0
    4.8551    0.6658   -1.9252 H   0  0  0  0  0
    4.9204   -0.6262   -0.7229 H   0  0  0  0  0
    6.8842    1.7153   -0.8977 H   0  0  0  0  0
    7.1904    0.0457   -1.4068 H   0  0  0  0  0
    6.9388    0.4139    0.3084 H   0  0  0  0  0
  1  2  2  0  0  0
  2  3  1  0  0  0
  3  7  1  0  0  0
  3  4  1  0  0  0
  4  5  1  0  0  0
  4 10  1  0  0  0
  4 11  1  0  0  0
  5  6  1  0  0  0
  5 12  1  0  0  0
  5 13  1  0  0  0
  6 14  1  0  0  0
  6 15  1  0  0  0
  6 16  1  0  0  0
  7  8  1  0  0  0
  7 17  1  0  0  0
  7 18  1  0  0  0
  8  9  1  0  0  0
  8 19  1  0  0  0
  8 20  1  0  0  0
  9 21  1  0  0  0
  9 22  1  0  0  0
  9 23  1  0  0  0
M  END