214
 OpenBabel11300909463D

 31 30  0  0  0  0  0  0  0  0999 V2000
    3.4130    0.8340   -0.3203 O   0  0  0  0  0
    2.7097   -0.1693   -0.2559 C   0  0  0  0  0
    3.1846   -1.4245    0.1138 N   0  0  0  0  0
    4.6034   -1.5399    0.4440 C   0  0  0  0  0
    4.8490   -1.3400    1.9395 C   0  0  0  0  0
    6.3265   -1.4462    2.2802 C   0  0  0  0  0
    2.3883   -2.6560    0.1726 C   0  0  0  0  0
    2.3538   -3.3672   -1.1818 C   0  0  0  0  0
    1.5043   -4.6257   -1.1296 C   0  0  0  0  0
    1.0031   -0.0506   -0.6623 S   0  0  0  0  0
    1.1919    0.6725   -2.3141 C   0  0  0  0  0
   -0.1683    0.8262   -2.9707 C   0  0  0  0  0
    5.1730   -0.7948   -0.1233 H   0  0  0  0  0
    4.9610   -2.5237    0.1196 H   0  0  0  0  0
    4.2915   -2.0883    2.5152 H   0  0  0  0  0
    4.4744   -0.3585    2.2540 H   0  0  0  0  0
    6.7244   -2.4268    1.9999 H   0  0  0  0  0
    6.4785   -1.3126    3.3559 H   0  0  0  0  0
    6.9052   -0.6778    1.7576 H   0  0  0  0  0
    1.3726   -2.4317    0.5126 H   0  0  0  0  0
    2.8246   -3.3139    0.9339 H   0  0  0  0  0
    3.3724   -3.6301   -1.4903 H   0  0  0  0  0
    1.9582   -2.6996   -1.9553 H   0  0  0  0  0
    1.9002   -5.3359   -0.3970 H   0  0  0  0  0
    1.4945   -5.1159   -2.1079 H   0  0  0  0  0
    0.4707   -4.3896   -0.8580 H   0  0  0  0  0
    1.8227    0.0160   -2.9231 H   0  0  0  0  0
    1.6813    1.6489   -2.2403 H   0  0  0  0  0
   -0.6862   -0.1351   -3.0566 H   0  0  0  0  0
   -0.0498    1.2288   -3.9820 H   0  0  0  0  0
   -0.8068    1.5180   -2.4114 H   0  0  0  0  0
  1  2  2  0  0  0
  2 10  1  0  0  0
  2  3  1  0  0  0
  3  7  1  0  0  0
  3  4  1  0  0  0
  4  5  1  0  0  0
  4 13  1  0  0  0
  4 14  1  0  0  0
  5  6  1  0  0  0
  5 15  1  0  0  0
  5 16  1  0  0  0
  6 17  1  0  0  0
  6 18  1  0  0  0
  6 19  1  0  0  0
  7  8  1  0  0  0
  7 20  1  0  0  0
  7 21  1  0  0  0
  8  9  1  0  0  0
  8 22  1  0  0  0
  8 23  1  0  0  0
  9 24  1  0  0  0
  9 25  1  0  0  0
  9 26  1  0  0  0
 10 11  1  0  0  0
 11 12  1  0  0  0
 11 27  1  0  0  0
 11 28  1  0  0  0
 12 29  1  0  0  0
 12 30  1  0  0  0
 12 31  1  0  0  0
M  END