215
 OpenBabel11300909463D

 24 25  0  0  0  0  0  0  0  0999 V2000
    2.0856   -0.4519    1.4540 C   0  0  0  0  0
    2.3102    0.0350    0.0299 C   0  0  0  0  0
    2.8630    1.4448   -0.0096 C   0  0  0  0  0
    4.2589    1.5928   -0.1084 C   0  0  0  0  0
    4.8413    2.8551   -0.1403 C   0  0  0  0  0
    4.0397    3.9897   -0.0695 C   0  0  0  0  0
    2.6458    3.8810    0.0382 C   0  0  0  0  0
    1.8569    5.0412    0.1139 C   0  0  0  0  0
    0.4703    4.9613    0.2260 C   0  0  0  0  0
   -0.1453    3.7182    0.2647 C   0  0  0  0  0
    0.6260    2.5553    0.1894 C   0  0  0  0  0
    2.0348    2.6005    0.0730 C   0  0  0  0  0
    1.6998   -1.4764    1.4461 H   0  0  0  0  0
    1.3646    0.1763    1.9870 H   0  0  0  0  0
    3.0201   -0.4465    2.0255 H   0  0  0  0  0
    1.3830   -0.0294   -0.5499 H   0  0  0  0  0
    3.0067   -0.6470   -0.4745 H   0  0  0  0  0
    4.9001    0.7165   -0.1610 H   0  0  0  0  0
    5.9205    2.9545   -0.2196 H   0  0  0  0  0
    4.5154    4.9677   -0.0962 H   0  0  0  0  0
    2.3222    6.0244    0.0869 H   0  0  0  0  0
   -0.1246    5.8685    0.2840 H   0  0  0  0  0
   -1.2260    3.6474    0.3538 H   0  0  0  0  0
    0.1022    1.6040    0.2268 H   0  0  0  0  0
  1  2  1  0  0  0
  1 13  1  0  0  0
  1 14  1  0  0  0
  1 15  1  0  0  0
  2  3  1  0  0  0
  2 16  1  0  0  0
  2 17  1  0  0  0
  3  4  2  0  0  0
  3 12  1  0  0  0
  4  5  1  0  0  0
  4 18  1  0  0  0
  5  6  2  0  0  0
  5 19  1  0  0  0
  6  7  1  0  0  0
  6 20  1  0  0  0
  7  8  2  0  0  0
  7 12  1  0  0  0
  8  9  1  0  0  0
  8 21  1  0  0  0
  9 10  2  0  0  0
  9 22  1  0  0  0
 10 11  1  0  0  0
 10 23  1  0  0  0
 11 12  2  0  0  0
 11 24  1  0  0  0
M  END