216
 OpenBabel11300909413D

 31 32  0  0  0  0  0  0  0  0999 V2000
    4.5689    0.4664   -1.6011 O   0  0  0  0  0
    3.9311   -0.2992   -0.8935 C   0  0  0  0  0
    4.4461   -1.1526    0.0704 O   0  0  0  0  0
    5.8317   -1.2851    0.2527 C   0  0  0  0  0
    6.2957   -1.5157    1.5371 C   0  0  0  0  0
    5.5103   -1.5781    2.6591 O   0  0  0  0  0
    6.4433   -1.6647    3.7737 C   0  0  0  0  0
    7.8470   -2.0088    3.2268 C   0  0  0  0  0
    6.4365   -0.3110    4.4949 C   0  0  0  0  0
    5.9374   -2.7582    4.7165 C   0  0  0  0  0
    7.6400   -1.7312    1.7869 C   0  0  0  0  0
    8.5684   -1.7301    0.7586 C   0  0  0  0  0
    8.1127   -1.5063   -0.5441 C   0  0  0  0  0
    6.7482   -1.2961   -0.8012 C   0  0  0  0  0
    2.5724   -0.4448   -0.9381 N   0  0  0  0  0
    1.7428    0.3305   -1.8187 C   0  0  0  0  0
    8.0980   -3.0659    3.3663 H   0  0  0  0  0
    8.6360   -1.3901    3.6646 H   0  0  0  0  0
    6.7537    0.4951    3.8237 H   0  0  0  0  0
    7.1006   -0.3174    5.3657 H   0  0  0  0  0
    5.4252   -0.0543    4.8304 H   0  0  0  0  0
    5.8694   -3.7203    4.1960 H   0  0  0  0  0
    4.9270   -2.5296    5.0739 H   0  0  0  0  0
    6.5953   -2.8776    5.5838 H   0  0  0  0  0
    9.6206   -1.9113    0.9506 H   0  0  0  0  0
    8.8193   -1.5074   -1.3716 H   0  0  0  0  0
    6.4227   -1.1500   -1.8274 H   0  0  0  0  0
    2.1624   -1.0253   -0.2195 H   0  0  0  0  0
    2.2413    0.4767   -2.7803 H   0  0  0  0  0
    1.5510    1.3015   -1.3562 H   0  0  0  0  0
    0.8008   -0.2020   -1.9659 H   0  0  0  0  0
  1  2  2  0  0  0
  2 15  1  0  0  0
  2  3  1  0  0  0
  3  4  1  0  0  0
  4 14  1  0  0  0
  4  5  2  0  0  0
  5  6  1  0  0  0
  5 11  1  0  0  0
  6  7  1  0  0  0
  7  8  1  0  0  0
  7 10  1  0  0  0
  7  9  1  0  0  0
  8 11  1  0  0  0
  8 17  1  0  0  0
  8 18  1  0  0  0
  9 19  1  0  0  0
  9 20  1  0  0  0
  9 21  1  0  0  0
 10 22  1  0  0  0
 10 23  1  0  0  0
 10 24  1  0  0  0
 11 12  2  0  0  0
 12 13  1  0  0  0
 12 25  1  0  0  0
 13 14  2  0  0  0
 13 26  1  0  0  0
 14 27  1  0  0  0
 15 16  1  0  0  0
 15 28  1  0  0  0
 16 29  1  0  0  0
 16 30  1  0  0  0
 16 31  1  0  0  0
M  END