220
 OpenBabel11300909473D

 28 28  0  0  0  0  0  0  0  0999 V2000
   -1.6569    1.2369   -2.1340 N   0  0  0  0  0
   -1.7002    0.6368   -0.9587 C   0  0  0  0  0
   -0.6280    0.2007   -0.3039 N   0  0  0  0  0
    0.5495    0.3972   -0.8859 C   0  0  0  0  0
    0.7076    0.9920   -2.0538 N   0  0  0  0  0
    1.6477   -0.0911   -0.1983 N   0  0  0  0  0
    2.9315    0.5694   -0.3914 C   0  0  0  0  0
    3.0192    1.8314    0.4652 C   0  0  0  0  0
    4.0363   -0.4129   -0.0020 C   0  0  0  0  0
   -2.9186    0.4282   -0.3244 N   0  0  0  0  0
   -4.0481    0.2167   -1.2130 C   0  0  0  0  0
   -5.2980   -0.0500   -0.3896 C   0  0  0  0  0
   -0.4303    1.3769   -2.6069 C   0  0  0  0  0
   -0.2989    2.1416   -4.1303 Cl  0  0  0  0  0
    1.3717   -0.2695    0.7612 H   0  0  0  0  0
    3.0920    0.8333   -1.4439 H   0  0  0  0  0
    2.9009    1.6000    1.5298 H   0  0  0  0  0
    2.2381    2.5496    0.1946 H   0  0  0  0  0
    3.9881    2.3241    0.3314 H   0  0  0  0  0
    3.9500   -0.7200    1.0464 H   0  0  0  0  0
    5.0252    0.0351   -0.1466 H   0  0  0  0  0
    3.9828   -1.3182   -0.6171 H   0  0  0  0  0
   -2.7669   -0.2909    0.3753 H   0  0  0  0  0
   -3.8645   -0.6387   -1.8741 H   0  0  0  0  0
   -4.2254    1.1023   -1.8349 H   0  0  0  0  0
   -5.1805   -0.9494    0.2244 H   0  0  0  0  0
   -6.1626   -0.1942   -1.0456 H   0  0  0  0  0
   -5.5129    0.7885    0.2815 H   0  0  0  0  0
  1  2  2  0  0  0
  1 13  1  0  0  0
  2  3  1  0  0  0
  2 10  1  0  0  0
  3  4  2  0  0  0
  4  5  1  0  0  0
  4  6  1  0  0  0
  5 13  2  0  0  0
  6  7  1  0  0  0
  6 15  1  0  0  0
  7  9  1  0  0  0
  7  8  1  0  0  0
  7 16  1  0  0  0
  8 17  1  0  0  0
  8 18  1  0  0  0
  8 19  1  0  0  0
  9 20  1  0  0  0
  9 21  1  0  0  0
  9 22  1  0  0  0
 10 11  1  0  0  0
 10 23  1  0  0  0
 11 12  1  0  0  0
 11 24  1  0  0  0
 11 25  1  0  0  0
 12 26  1  0  0  0
 12 27  1  0  0  0
 12 28  1  0  0  0
 13 14  1  0  0  0
M  END