225
 OpenBabel11300909473D

 32 31  0  0  0  0  0  0  0  0999 V2000
    1.8011   -0.7734    0.6837 C   0  0  0  0  0
    2.5753   -0.1340   -0.4676 C   0  0  0  0  0
    2.0690   -0.6412   -1.8226 C   0  0  0  0  0
    2.5903    1.3524   -0.3480 N   0  0  0  0  0
    1.3731    2.0934   -0.7470 C   0  0  0  0  0
    0.6708    2.7546    0.4444 C   0  0  0  0  0
    1.6347    3.0952   -1.8729 C   0  0  0  0  0
    3.6305    2.0752    0.2517 C   0  0  0  0  0
    3.6953    3.2967    0.2841 O   0  0  0  0  0
    4.9046    1.1543    1.0349 S   0  0  0  0  0
    6.3141    1.9282    0.1950 C   0  0  0  0  0
    7.5849    1.2216    0.5880 C   0  0  0  0  0
    7.9026   -0.2074   -0.3720 Cl  0  0  0  0  0
    8.4421    1.6279    1.5428 C   0  0  0  0  0
    8.1503    3.0473    2.4977 Cl  0  0  0  0  0
    9.9013    0.7714    1.9297 Cl  0  0  0  0  0
    2.1764   -0.4284    1.6537 H   0  0  0  0  0
    1.8972   -1.8643    0.6555 H   0  0  0  0  0
    0.7354   -0.5268    0.6353 H   0  0  0  0  0
    3.6054   -0.4975   -0.4112 H   0  0  0  0  0
    0.9871   -0.5269   -1.9393 H   0  0  0  0  0
    2.2880   -1.7094   -1.9323 H   0  0  0  0  0
    2.5600   -0.1115   -2.6470 H   0  0  0  0  0
    0.6527    1.3709   -1.1412 H   0  0  0  0  0
    1.2695    3.5527    0.8921 H   0  0  0  0  0
    0.4596    2.0182    1.2261 H   0  0  0  0  0
   -0.2826    3.1936    0.1300 H   0  0  0  0  0
    2.2121    3.9615   -1.5369 H   0  0  0  0  0
    0.6876    3.4746   -2.2737 H   0  0  0  0  0
    2.1842    2.6241   -2.6947 H   0  0  0  0  0
    6.3449    2.9931    0.4392 H   0  0  0  0  0
    6.1660    1.8668   -0.8886 H   0  0  0  0  0
  1  2  1  0  0  0
  1 17  1  0  0  0
  1 18  1  0  0  0
  1 19  1  0  0  0
  2  4  1  0  0  0
  2  3  1  0  0  0
  2 20  1  0  0  0
  3 21  1  0  0  0
  3 22  1  0  0  0
  3 23  1  0  0  0
  4  8  1  0  0  0
  4  5  1  0  0  0
  5  7  1  0  0  0
  5  6  1  0  0  0
  5 24  1  0  0  0
  6 25  1  0  0  0
  6 26  1  0  0  0
  6 27  1  0  0  0
  7 28  1  0  0  0
  7 29  1  0  0  0
  7 30  1  0  0  0
  8 10  1  0  0  0
  8  9  2  0  0  0
 10 11  1  0  0  0
 11 12  1  0  0  0
 11 31  1  0  0  0
 11 32  1  0  0  0
 12 14  2  0  0  0
 12 13  1  0  0  0
 14 16  1  0  0  0
 14 15  1  0  0  0
M  END