226
 OpenBabel11300909473D

 17 17  0  0  0  0  0  0  0  0999 V2000
    2.6925   -0.7486    0.8772 C   0  0  0  0  0
    2.6408    0.0425   -0.3153 O   0  0  0  0  0
    3.3111    1.2322   -0.1575 C   0  0  0  0  0
    2.5213    2.3746   -0.0001 C   0  0  0  0  0
    1.1555    2.2357   -0.0030 O   0  0  0  0  0
    3.1057    3.6344    0.1581 C   0  0  0  0  0
    2.0775    5.0148    0.3753 Cl  0  0  0  0  0
    4.5057    3.7527    0.1332 C   0  0  0  0  0
    5.2471    5.3154    0.3367 Cl  0  0  0  0  0
    5.3062    2.6064   -0.0639 C   0  0  0  0  0
    7.0419    2.7506   -0.1150 Cl  0  0  0  0  0
    4.7050    1.3428   -0.2205 C   0  0  0  0  0
    5.6574   -0.0762   -0.5235 Cl  0  0  0  0  0
    1.7313   -1.2624    0.9778 H   0  0  0  0  0
    2.8544   -0.1518    1.7830 H   0  0  0  0  0
    3.4730   -1.5092    0.7845 H   0  0  0  0  0
    0.9620    1.3122   -0.2562 H   0  0  0  0  0
  1  2  1  0  0  0
  1 14  1  0  0  0
  1 15  1  0  0  0
  1 16  1  0  0  0
  2  3  1  0  0  0
  3 12  1  0  0  0
  3  4  2  0  0  0
  4  6  1  0  0  0
  4  5  1  0  0  0
  5 17  1  0  0  0
  6  8  2  0  0  0
  6  7  1  0  0  0
  8 10  1  0  0  0
  8  9  1  0  0  0
 10 12  2  0  0  0
 10 11  1  0  0  0
 12 13  1  0  0  0
M  END