227
 OpenBabel11300909473D

 22 24  0  0  0  0  0  0  0  0999 V2000
    1.0045    0.0931    0.0039 Cl  0  0  0  0  0
    2.7439    0.0316    0.0004 C   0  0  0  0  0
    3.4972    1.2218   -0.0013 C   0  0  0  0  0
    2.6973    2.7675    0.0001 Cl  0  0  0  0  0
    4.9016    1.1589   -0.0039 C   0  0  0  0  0
    5.8720    2.6001   -0.0060 Cl  0  0  0  0  0
    5.5472   -0.0856   -0.0051 C   0  0  0  0  0
    6.9201   -0.1100   -0.0075 O   0  0  0  0  0
    7.5297   -1.3405   -0.0079 C   0  0  0  0  0
    8.9308   -1.3914   -0.0099 C   0  0  0  0  0
    9.8181    0.1023   -0.0119 Cl  0  0  0  0  0
    9.5886   -2.6339   -0.0104 C   0  0  0  0  0
   11.3279   -2.6954   -0.0128 Cl  0  0  0  0  0
    8.8351   -3.8240   -0.0087 C   0  0  0  0  0
    9.6350   -5.3698   -0.0092 Cl  0  0  0  0  0
    7.4306   -3.7612   -0.0068 C   0  0  0  0  0
    6.4603   -5.2022   -0.0047 Cl  0  0  0  0  0
    6.7852   -2.5166   -0.0063 C   0  0  0  0  0
    5.4124   -2.4922   -0.0044 O   0  0  0  0  0
    4.8026   -1.2619   -0.0033 C   0  0  0  0  0
    3.4017   -1.2108   -0.0008 C   0  0  0  0  0
    2.5144   -2.7046    0.0012 Cl  0  0  0  0  0
  1  2  1  0  0  0
  2  3  2  0  0  0
  2 21  1  0  0  0
  3  5  1  0  0  0
  3  4  1  0  0  0
  5  7  2  0  0  0
  5  6  1  0  0  0
  7  8  1  0  0  0
  7 20  1  0  0  0
  8  9  1  0  0  0
  9 10  2  0  0  0
  9 18  1  0  0  0
 10 12  1  0  0  0
 10 11  1  0  0  0
 12 14  2  0  0  0
 12 13  1  0  0  0
 14 16  1  0  0  0
 14 15  1  0  0  0
 16 18  2  0  0  0
 16 17  1  0  0  0
 18 19  1  0  0  0
 19 20  1  0  0  0
 20 21  2  0  0  0
 21 22  1  0  0  0
M  END