236
 OpenBabel11300909473D

 25 26  0  0  0  0  0  0  0  0999 V2000
    0.9786   -0.2680   -0.4259 Cl  0  0  0  0  0
    2.6967   -0.1406   -0.2538 C   0  0  0  0  0
    3.3327    1.1035   -0.0938 C   0  0  0  0  0
    4.7341    1.1189    0.0185 C   0  0  0  0  0
    5.4753   -0.0658   -0.0183 C   0  0  0  0  0
    4.8332   -1.2992   -0.1594 C   0  0  0  0  0
    3.4401   -1.3269   -0.2906 C   0  0  0  0  0
    5.6316   -2.5672   -0.2296 C   0  0  0  0  0
    2.5952    2.3767   -0.0495 C   0  0  0  0  0
    2.0579    2.9050    1.1393 C   0  0  0  0  0
    1.3640    4.1201    1.1326 C   0  0  0  0  0
    1.1975    4.8264   -0.0579 C   0  0  0  0  0
    1.7244    4.3209   -1.2432 C   0  0  0  0  0
    2.4173    3.1079   -1.2389 C   0  0  0  0  0
    2.2341    2.0927    2.6576 Cl  0  0  0  0  0
    5.2592    2.0650    0.1408 H   0  0  0  0  0
    6.5589   -0.0169    0.0690 H   0  0  0  0  0
    2.9273   -2.2775   -0.4200 H   0  0  0  0  0
    5.0369   -3.4249    0.1018 H   0  0  0  0  0
    6.5095   -2.5097    0.4224 H   0  0  0  0  0
    5.9628   -2.7443   -1.2574 H   0  0  0  0  0
    0.9498    4.5199    2.0547 H   0  0  0  0  0
    0.6556    5.7688   -0.0602 H   0  0  0  0  0
    1.5940    4.8676   -2.1740 H   0  0  0  0  0
    2.8173    2.7255   -2.1767 H   0  0  0  0  0
  1  2  1  0  0  0
  2  3  2  0  0  0
  2  7  1  0  0  0
  3  4  1  0  0  0
  3  9  1  0  0  0
  4  5  2  0  0  0
  4 16  1  0  0  0
  5  6  1  0  0  0
  5 17  1  0  0  0
  6  7  2  0  0  0
  6  8  1  0  0  0
  7 18  1  0  0  0
  8 19  1  0  0  0
  8 20  1  0  0  0
  8 21  1  0  0  0
  9 10  2  0  0  0
  9 14  1  0  0  0
 10 11  1  0  0  0
 10 15  1  0  0  0
 11 12  2  0  0  0
 11 22  1  0  0  0
 12 13  1  0  0  0
 12 23  1  0  0  0
 13 14  2  0  0  0
 13 24  1  0  0  0
 14 25  1  0  0  0
M  END