237
 OpenBabel11300909473D

 22 23  0  0  0  0  0  0  0  0999 V2000
    1.0261   -0.2734   -0.3920 Cl  0  0  0  0  0
    2.7408   -0.1429   -0.2029 C   0  0  0  0  0
    3.3744    1.1085   -0.0818 C   0  0  0  0  0
    4.7745    1.1338    0.0553 C   0  0  0  0  0
    5.5191   -0.0511    0.0768 C   0  0  0  0  0
    4.8703   -1.2837   -0.0409 C   0  0  0  0  0
    3.4819   -1.3280   -0.1813 C   0  0  0  0  0
    5.7243   -2.7850   -0.0244 Cl  0  0  0  0  0
    7.2325    0.0820    0.2487 Cl  0  0  0  0  0
    2.6304    2.3795   -0.0921 C   0  0  0  0  0
    2.0698    2.9403    1.0712 C   0  0  0  0  0
    1.3639    4.1457    1.0194 C   0  0  0  0  0
    1.2075    4.8139   -0.1971 C   0  0  0  0  0
    1.7598    4.2760   -1.3630 C   0  0  0  0  0
    2.4657    3.0688   -1.3076 C   0  0  0  0  0
    1.6113    5.0478   -2.9009 Cl  0  0  0  0  0
    0.3261    6.2994   -0.1896 Cl  0  0  0  0  0
    2.2342    2.1742    2.6137 Cl  0  0  0  0  0
    5.2896    2.0887    0.1535 H   0  0  0  0  0
    2.9758   -2.2865   -0.2741 H   0  0  0  0  0
    0.9358    4.5639    1.9275 H   0  0  0  0  0
    2.8873    2.6554   -2.2233 H   0  0  0  0  0
  1  2  1  0  0  0
  2  3  2  0  0  0
  2  7  1  0  0  0
  3  4  1  0  0  0
  3 10  1  0  0  0
  4  5  2  0  0  0
  4 19  1  0  0  0
  5  6  1  0  0  0
  5  9  1  0  0  0
  6  7  2  0  0  0
  6  8  1  0  0  0
  7 20  1  0  0  0
 10 11  2  0  0  0
 10 15  1  0  0  0
 11 12  1  0  0  0
 11 18  1  0  0  0
 12 13  2  0  0  0
 12 21  1  0  0  0
 13 14  1  0  0  0
 13 17  1  0  0  0
 14 15  2  0  0  0
 14 16  1  0  0  0
 15 22  1  0  0  0
M  END