249
 OpenBabel11300909443D

 41 41  0  0  0  0  0  0  0  0999 V2000
    4.8334    4.7639    1.5214 C   0  0  0  0  0
    6.2916    5.1994    1.5316 C   0  0  0  0  0
    6.8671    5.4409    0.1504 C   0  0  0  0  0
    7.0859    6.7799   -0.2277 C   0  0  0  0  0
    7.5837    7.1012   -1.4850 C   0  0  0  0  0
    7.8810    6.0903   -2.3909 C   0  0  0  0  0
    7.6637    4.7416   -2.0657 C   0  0  0  0  0
    8.1056    3.7179   -3.0798 C   0  0  0  0  0
    7.1527    4.4155   -0.7829 C   0  0  0  0  0
    6.8685    3.0546   -0.4499 N   0  0  0  0  0
    7.8211    2.3775    0.4683 C   0  0  0  0  0
    7.0973    1.5421    1.5375 C   0  0  0  0  0
    8.8664    1.5161   -0.2622 C   0  0  0  0  0
    9.8128    1.0021    0.6868 O   0  0  0  0  0
   10.6885    0.0513    0.0957 C   0  0  0  0  0
    5.9053    2.3268   -1.1535 C   0  0  0  0  0
    5.9145    1.0923   -1.1724 O   0  0  0  0  0
    4.8253    3.1133   -1.8934 C   0  0  0  0  0
    3.2242    2.4137   -1.5388 Cl  0  0  0  0  0
    4.2140    5.4531    0.9387 H   0  0  0  0  0
    4.4445    4.7356    2.5445 H   0  0  0  0  0
    4.7099    3.7632    1.1006 H   0  0  0  0  0
    6.9042    4.4747    2.0767 H   0  0  0  0  0
    6.3627    6.1218    2.1219 H   0  0  0  0  0
    6.8604    7.5890    0.4651 H   0  0  0  0  0
    7.7499    8.1423   -1.7539 H   0  0  0  0  0
    8.2925    6.3647   -3.3604 H   0  0  0  0  0
    7.4299    2.8651   -3.1449 H   0  0  0  0  0
    9.1109    3.3627   -2.8362 H   0  0  0  0  0
    8.1419    4.1536   -4.0855 H   0  0  0  0  0
    8.3719    3.1542    1.0154 H   0  0  0  0  0
    6.2382    2.0774    1.9549 H   0  0  0  0  0
    7.7743    1.3053    2.3658 H   0  0  0  0  0
    6.7331    0.5909    1.1362 H   0  0  0  0  0
    9.4193    2.1273   -0.9832 H   0  0  0  0  0
    8.3966    0.6879   -0.8011 H   0  0  0  0  0
   10.1259   -0.8233   -0.2439 H   0  0  0  0  0
   11.4074   -0.2710    0.8537 H   0  0  0  0  0
   11.2349    0.4982   -0.7399 H   0  0  0  0  0
    4.9990    3.0554   -2.9682 H   0  0  0  0  0
    4.7708    4.1592   -1.5833 H   0  0  0  0  0
  1  2  1  0  0  0
  1 20  1  0  0  0
  1 21  1  0  0  0
  1 22  1  0  0  0
  2  3  1  0  0  0
  2 23  1  0  0  0
  2 24  1  0  0  0
  3  9  1  0  0  0
  3  4  2  0  0  0
  4  5  1  0  0  0
  4 25  1  0  0  0
  5  6  2  0  0  0
  5 26  1  0  0  0
  6  7  1  0  0  0
  6 27  1  0  0  0
  7  9  2  0  0  0
  7  8  1  0  0  0
  8 28  1  0  0  0
  8 29  1  0  0  0
  8 30  1  0  0  0
  9 10  1  0  0  0
 10 16  1  0  0  0
 10 11  1  0  0  0
 11 13  1  0  0  0
 11 12  1  0  0  0
 11 31  1  0  0  0
 12 32  1  0  0  0
 12 33  1  0  0  0
 12 34  1  0  0  0
 13 14  1  0  0  0
 13 35  1  0  0  0
 13 36  1  0  0  0
 14 15  1  0  0  0
 15 37  1  0  0  0
 15 38  1  0  0  0
 15 39  1  0  0  0
 16 18  1  0  0  0
 16 17  2  0  0  0
 18 19  1  0  0  0
 18 40  1  0  0  0
 18 41  1  0  0  0
M  END