250
 OpenBabel11300909443D

 22 23  0  0  0  0  0  0  0  0999 V2000
    2.1796   -0.6477    2.3128 Cl  0  0  0  0  0
    3.2753   -0.2396    1.0163 C   0  0  0  0  0
    3.5150   -1.1936   -0.0008 C   0  0  0  0  0
    2.8305   -2.5104    0.0131 C   0  0  0  0  0
    1.5817   -2.7256   -0.6123 C   0  0  0  0  0
    0.8167   -1.3912   -1.4321 Cl  0  0  0  0  0
    0.9671   -3.9944   -0.5738 C   0  0  0  0  0
   -0.5720   -4.2385   -1.3507 Cl  0  0  0  0  0
    1.5990   -5.0604    0.0924 C   0  0  0  0  0
    0.8602   -6.6333    0.1527 Cl  0  0  0  0  0
    2.8377   -4.8478    0.7128 C   0  0  0  0  0
    3.6888   -6.0970    1.5544 Cl  0  0  0  0  0
    3.4435   -3.5884    0.6725 C   0  0  0  0  0
    4.4132   -0.8530   -1.0396 C   0  0  0  0  0
    4.7305   -2.0227   -2.2964 Cl  0  0  0  0  0
    5.0479    0.4040   -1.0673 C   0  0  0  0  0
    6.1503    0.7936   -2.3585 Cl  0  0  0  0  0
    4.7920    1.3400   -0.0499 C   0  0  0  0  0
    5.5771    2.8959   -0.0795 Cl  0  0  0  0  0
    3.9067    1.0191    0.9942 C   0  0  0  0  0
    3.5926    2.1722    2.2615 Cl  0  0  0  0  0
    4.4072   -3.4472    1.1625 H   0  0  0  0  0
  1  2  1  0  0  0
  2  3  1  0  0  0
  2 20  2  0  0  0
  3 14  2  0  0  0
  3  4  1  0  0  0
  4 13  1  0  0  0
  4  5  2  0  0  0
  5  7  1  0  0  0
  5  6  1  0  0  0
  7  9  2  0  0  0
  7  8  1  0  0  0
  9 11  1  0  0  0
  9 10  1  0  0  0
 11 13  2  0  0  0
 11 12  1  0  0  0
 13 22  1  0  0  0
 14 16  1  0  0  0
 14 15  1  0  0  0
 16 18  2  0  0  0
 16 17  1  0  0  0
 18 20  1  0  0  0
 18 19  1  0  0  0
 20 21  1  0  0  0
M  END