4-hydroxy-3-methoxybenzylamine
 OpenBabel11261423233D

 11 11  0  0  0  0  0  0  0  0999 V2000
   -1.1563    2.0001   -2.1649 N   0  0  0  0  0  0  0  0  0  0  0  0
   -1.4094    1.1091   -1.0241 C   0  0  0  0  0  0  0  0  0  0  0  0
   -0.1279    0.8735   -0.2813 C   0  0  0  0  0  0  0  0  0  0  0  0
    1.0483    1.4701   -0.7158 C   0  0  0  0  0  0  0  0  0  0  0  0
    2.2537    1.2713   -0.0485 C   0  0  0  0  0  0  0  0  0  0  0  0
    3.3955    1.9590   -0.6194 O   0  0  0  0  0  0  0  0  0  0  0  0
    4.6733    1.8040    0.0115 C   0  0  0  0  0  0  0  0  0  0  0  0
    2.2635    0.4454    1.0889 C   0  0  0  0  0  0  0  0  0  0  0  0
    3.4078    0.1701    1.8413 O   0  0  0  0  0  0  0  0  0  0  0  0
    1.0803   -0.1488    1.5179 C   0  0  0  0  0  0  0  0  0  0  0  0
   -0.1136    0.0595    0.8412 C   0  0  0  0  0  0  0  0  0  0  0  0
  1  2  1  0  0  0  0
  2  3  1  0  0  0  0
  3  4  1  0  0  0  0
  4  5  2  0  0  0  0
  5  8  1  0  0  0  0
  5  6  1  0  0  0  0
  6  7  1  0  0  0  0
  8 10  2  0  0  0  0
  8  9  1  0  0  0  0
 10 11  1  0  0  0  0
 11  3  2  0  0  0  0
M  END
