3-hydroxybenzoicacid(3-carboxylphenol)
 OpenBabel11261423233D

 10 10  0  0  0  0  0  0  0  0999 V2000
    2.9230   -1.0616    0.4407 C   0  0  0  0  0  0  0  0  0  0  0  0
    3.4753    0.1740    0.7594 C   0  0  0  0  0  0  0  0  0  0  0  0
    2.6777    1.3129    0.7596 C   0  0  0  0  0  0  0  0  0  0  0  0
    3.2303    2.5486    1.0783 O   0  0  0  0  0  0  0  0  0  0  0  0
    1.3279    1.2167    0.4412 C   0  0  0  0  0  0  0  0  0  0  0  0
    1.5731   -1.1581    0.1223 C   0  0  0  0  0  0  0  0  0  0  0  0
    0.7763   -0.0189    0.1227 C   0  0  0  0  0  0  0  0  0  0  0  0
   -0.6409   -0.1202   -0.2116 C   0  0  0  0  0  0  0  0  0  0  0  0
   -1.3492    0.8926   -0.2112 O   0  0  0  0  0  0  0  0  0  0  0  0
   -1.1927   -1.3564   -0.5302 O   0  0  0  0  0  0  0  0  0  0  0  0
  1  6  2  0  0  0  0
  1  2  1  0  0  0  0
  2  3  2  0  0  0  0
  3  5  1  0  0  0  0
  3  4  1  0  0  0  0
  6  7  1  0  0  0  0
  7  8  1  0  0  0  0
  7  5  2  0  0  0  0
  8 10  1  0  0  0  0
  8  9  2  0  0  0  0
M  END
