4-hydroxybenzamide
 OpenBabel11261423233D

 10 10  0  0  0  0  0  0  0  0999 V2000
   -0.0323    1.3835   -3.2285 O   0  0  0  0  0  0  0  0  0  0  0  0
    0.3479    1.2918   -1.8939 C   0  0  0  0  0  0  0  0  0  0  0  0
    1.3898    2.0769   -1.4127 C   0  0  0  0  0  0  0  0  0  0  0  0
    1.7699    1.9853   -0.0786 C   0  0  0  0  0  0  0  0  0  0  0  0
    1.1077    1.1087    0.7733 C   0  0  0  0  0  0  0  0  0  0  0  0
    1.5068    1.0125    2.1741 C   0  0  0  0  0  0  0  0  0  0  0  0
    2.4329    1.7104    2.6016 O   0  0  0  0  0  0  0  0  0  0  0  0
    0.8420    0.1324    3.0294 N   0  0  0  0  0  0  0  0  0  0  0  0
    0.0660    0.3236    0.2927 C   0  0  0  0  0  0  0  0  0  0  0  0
   -0.3140    0.4153   -1.0414 C   0  0  0  0  0  0  0  0  0  0  0  0
  1  2  1  0  0  0  0
  2  3  1  0  0  0  0
  3  4  2  0  0  0  0
  4  5  1  0  0  0  0
  5  9  2  0  0  0  0
  5  6  1  0  0  0  0
  6  8  1  0  0  0  0
  6  7  2  0  0  0  0
  9 10  1  0  0  0  0
 10  2  2  0  0  0  0
M  END
