4-hydroxy-3-methoxybenzylalcohol
 OpenBabel11261423233D

 11 11  0  0  0  0  0  0  0  0999 V2000
   -2.3510    1.0072   -0.5902 O   0  0  0  0  0  0  0  0  0  0  0  0
   -1.1742    1.4361   -1.2791 C   0  0  0  0  0  0  0  0  0  0  0  0
    0.0310    1.1440   -0.4358 C   0  0  0  0  0  0  0  0  0  0  0  0
    1.2993    1.4728   -0.8955 C   0  0  0  0  0  0  0  0  0  0  0  0
    2.4370    1.2143   -0.1359 C   0  0  0  0  0  0  0  0  0  0  0  0
    3.6903    1.6131   -0.7468 O   0  0  0  0  0  0  0  0  0  0  0  0
    4.9074    1.3800   -0.0263 C   0  0  0  0  0  0  0  0  0  0  0  0
    2.2813    0.6065    1.1220 C   0  0  0  0  0  0  0  0  0  0  0  0
    3.3440    0.2976    1.9744 O   0  0  0  0  0  0  0  0  0  0  0  0
    1.0065    0.2802    1.5753 C   0  0  0  0  0  0  0  0  0  0  0  0
   -0.1180    0.5446    0.8057 C   0  0  0  0  0  0  0  0  0  0  0  0
  1  2  1  0  0  0  0
  2  3  1  0  0  0  0
  3  4  1  0  0  0  0
  4  5  2  0  0  0  0
  5  8  1  0  0  0  0
  5  6  1  0  0  0  0
  6  7  1  0  0  0  0
  8 10  2  0  0  0  0
  8  9  1  0  0  0  0
 10 11  1  0  0  0  0
 11  3  2  0  0  0  0
M  END
