salicylicacid
 OpenBabel11261423233D

 10 10  0  0  0  0  0  0  0  0999 V2000
    1.9536    1.1365    0.9058 C   0  0  0  0  0  0  0  0  0  0  0  0
    1.2230    2.3085    0.7502 C   0  0  0  0  0  0  0  0  0  0  0  0
   -0.0412    2.2671    0.1739 C   0  0  0  0  0  0  0  0  0  0  0  0
   -0.5782    1.0559   -0.2480 C   0  0  0  0  0  0  0  0  0  0  0  0
   -1.9158    1.0370   -0.8541 C   0  0  0  0  0  0  0  0  0  0  0  0
   -2.5433    2.0943   -0.9802 O   0  0  0  0  0  0  0  0  0  0  0  0
   -2.4839   -0.1566   -1.2874 O   0  0  0  0  0  0  0  0  0  0  0  0
    1.4187   -0.0755    0.4846 C   0  0  0  0  0  0  0  0  0  0  0  0
    0.1541   -0.1181   -0.0920 C   0  0  0  0  0  0  0  0  0  0  0  0
   -0.3671   -1.3382   -0.5081 O   0  0  0  0  0  0  0  0  0  0  0  0
  1  8  2  0  0  0  0
  1  2  1  0  0  0  0
  2  3  2  0  0  0  0
  3  4  1  0  0  0  0
  4  5  1  0  0  0  0
  5  7  1  0  0  0  0
  5  6  2  0  0  0  0
  8  9  1  0  0  0  0
  9 10  1  0  0  0  0
  9  4  2  0  0  0  0
M  END
