5-methylresorcinol
 OpenBabel11261423233D

  9  9  0  0  0  0  0  0  0  0999 V2000
   -0.4314    1.2560   -1.7069 O   0  0  0  0  0  0  0  0  0  0  0  0
    0.4366    0.6128   -0.8314 C   0  0  0  0  0  0  0  0  0  0  0  0
    1.6993    0.2243   -1.2647 C   0  0  0  0  0  0  0  0  0  0  0  0
    2.5669   -0.4188   -0.3890 C   0  0  0  0  0  0  0  0  0  0  0  0
    3.8298   -0.8075   -0.8221 O   0  0  0  0  0  0  0  0  0  0  0  0
    2.1720   -0.6734    0.9195 C   0  0  0  0  0  0  0  0  0  0  0  0
    0.9093   -0.2848    1.3524 C   0  0  0  0  0  0  0  0  0  0  0  0
    0.4831   -0.5595    2.7646 C   0  0  0  0  0  0  0  0  0  0  0  0
    0.0415    0.3583    0.4771 C   0  0  0  0  0  0  0  0  0  0  0  0
  1  2  1  0  0  0  0
  2  3  1  0  0  0  0
  3  4  2  0  0  0  0
  4  6  1  0  0  0  0
  4  5  1  0  0  0  0
  6  7  2  0  0  0  0
  7  9  1  0  0  0  0
  7  8  1  0  0  0  0
  9  2  2  0  0  0  0
M  END
