3-hydroxyacetophenone
 OpenBabel11261423233D

 10 10  0  0  0  0  0  0  0  0999 V2000
    2.9249   -1.0576    0.4502 C   0  0  0  0  0  0  0  0  0  0  0  0
    3.4811    0.1781    0.7613 C   0  0  0  0  0  0  0  0  0  0  0  0
    2.6869    1.3193    0.7553 C   0  0  0  0  0  0  0  0  0  0  0  0
    3.2432    2.5552    1.0664 O   0  0  0  0  0  0  0  0  0  0  0  0
    1.3366    1.2252    0.4382 C   0  0  0  0  0  0  0  0  0  0  0  0
    1.5746   -1.1517    0.1331 C   0  0  0  0  0  0  0  0  0  0  0  0
    0.7804   -0.0103    0.1271 C   0  0  0  0  0  0  0  0  0  0  0  0
   -0.6406   -0.1052   -0.2059 C   0  0  0  0  0  0  0  0  0  0  0  0
   -1.3412    0.9130   -0.2095 O   0  0  0  0  0  0  0  0  0  0  0  0
   -1.2497   -1.4362   -0.5433 C   0  0  0  0  0  0  0  0  0  0  0  0
  1  6  2  0  0  0  0
  1  2  1  0  0  0  0
  2  3  2  0  0  0  0
  3  5  1  0  0  0  0
  3  4  1  0  0  0  0
  6  7  1  0  0  0  0
  7  8  1  0  0  0  0
  7  5  2  0  0  0  0
  8 10  1  0  0  0  0
  8  9  2  0  0  0  0
M  END
