2-ethoxyphenol
 OpenBabel11261423233D

 10 10  0  0  0  0  0  0  0  0999 V2000
   -0.1953    1.5823   -1.2531 C   0  0  0  0  0  0  0  0  0  0  0  0
    0.5789    2.2132   -0.2831 C   0  0  0  0  0  0  0  0  0  0  0  0
    0.5970    3.6678   -0.3597 O   0  0  0  0  0  0  0  0  0  0  0  0
    1.4149    4.4295    0.5549 C   0  0  0  0  0  0  0  0  0  0  0  0
    2.8906    4.4469    0.0779 C   0  0  0  0  0  0  0  0  0  0  0  0
    1.2468    1.4159    0.6622 C   0  0  0  0  0  0  0  0  0  0  0  0
    2.0375    1.9349    1.6867 O   0  0  0  0  0  0  0  0  0  0  0  0
    1.1267    0.0307    0.6057 C   0  0  0  0  0  0  0  0  0  0  0  0
    0.3544   -0.5818   -0.3718 C   0  0  0  0  0  0  0  0  0  0  0  0
   -0.3109    0.1992   -1.3049 C   0  0  0  0  0  0  0  0  0  0  0  0
  1  2  1  0  0  0  0
  2  6  2  0  0  0  0
  2  3  1  0  0  0  0
  3  4  1  0  0  0  0
  4  5  1  0  0  0  0
  6  8  1  0  0  0  0
  6  7  1  0  0  0  0
  8  9  2  0  0  0  0
  9 10  1  0  0  0  0
 10  1  2  0  0  0  0
M  END
