phenol
 OpenBabel11261423233D

  7  7  0  0  0  0  0  0  0  0999 V2000
    1.7688    1.2258    0.5200 C   0  0  0  0  0  0  0  0  0  0  0  0
    0.8373    2.2371    0.7271 C   0  0  0  0  0  0  0  0  0  0  0  0
   -0.4918    2.0420    0.3685 C   0  0  0  0  0  0  0  0  0  0  0  0
   -0.8892    0.8356   -0.1972 C   0  0  0  0  0  0  0  0  0  0  0  0
   -2.2187    0.6405   -0.5559 O   0  0  0  0  0  0  0  0  0  0  0  0
    1.3714    0.0194   -0.0457 C   0  0  0  0  0  0  0  0  0  0  0  0
    0.0423   -0.1757   -0.4044 C   0  0  0  0  0  0  0  0  0  0  0  0
  1  6  2  0  0  0  0
  1  2  1  0  0  0  0
  2  3  2  0  0  0  0
  3  4  1  0  0  0  0
  4  5  1  0  0  0  0
  6  7  1  0  0  0  0
  7  4  2  0  0  0  0
M  END
