4-hydroxy-3-methoxyphenethylalcohol
 OpenBabel11261423233D

 12 12  0  0  0  0  0  0  0  0999 V2000
   -0.9100    3.6899   -0.7721 O   0  0  0  0  0  0  0  0  0  0  0  0
   -1.2772    2.5535   -1.5652 C   0  0  0  0  0  0  0  0  0  0  0  0
   -1.3880    1.2920   -0.6750 C   0  0  0  0  0  0  0  0  0  0  0  0
   -0.0520    0.9024   -0.0785 C   0  0  0  0  0  0  0  0  0  0  0  0
    1.1133    1.5749   -0.4272 C   0  0  0  0  0  0  0  0  0  0  0  0
    2.3485    1.2240    0.1103 C   0  0  0  0  0  0  0  0  0  0  0  0
    3.4699    2.0195   -0.3499 O   0  0  0  0  0  0  0  0  0  0  0  0
    4.7761    1.7189    0.1583 C   0  0  0  0  0  0  0  0  0  0  0  0
    2.4041    0.1598    1.0264 C   0  0  0  0  0  0  0  0  0  0  0  0
    3.5810   -0.2854    1.6330 O   0  0  0  0  0  0  0  0  0  0  0  0
    1.2349   -0.5116    1.3705 C   0  0  0  0  0  0  0  0  0  0  0  0
    0.0115   -0.1482    0.8245 C   0  0  0  0  0  0  0  0  0  0  0  0
  1  2  1  0  0  0  0
  2  3  1  0  0  0  0
  3  4  1  0  0  0  0
  4  5  1  0  0  0  0
  5  6  2  0  0  0  0
  6  9  1  0  0  0  0
  6  7  1  0  0  0  0
  7  8  1  0  0  0  0
  9 11  2  0  0  0  0
  9 10  1  0  0  0  0
 11 12  1  0  0  0  0
 12  4  2  0  0  0  0
M  END
