2-hydroxyethylsalicylate
 OpenBabel11261423233D

 13 13  0  0  0  0  0  0  0  0999 V2000
    0.3463    0.8518   -0.0117 C   0  0  0  0  0  0  0  0  0  0  0  0
    0.1208    2.0751    0.7654 C   0  0  0  0  0  0  0  0  0  0  0  0
    0.3802    2.0781    1.9743 O   0  0  0  0  0  0  0  0  0  0  0  0
   -0.4001    3.2221    0.1476 O   0  0  0  0  0  0  0  0  0  0  0  0
   -0.5345    4.3310    1.0642 C   0  0  0  0  0  0  0  0  0  0  0  0
    0.8160    5.0803    1.2787 C   0  0  0  0  0  0  0  0  0  0  0  0
    1.8063    4.2291    1.8628 O   0  0  0  0  0  0  0  0  0  0  0  0
    0.0603    0.8055   -1.3737 C   0  0  0  0  0  0  0  0  0  0  0  0
   -0.4472    1.9218   -2.0292 O   0  0  0  0  0  0  0  0  0  0  0  0
    0.2826   -0.3656   -2.0895 C   0  0  0  0  0  0  0  0  0  0  0  0
    0.7897   -1.4901   -1.4488 C   0  0  0  0  0  0  0  0  0  0  0  0
    1.0755   -1.4442   -0.0893 C   0  0  0  0  0  0  0  0  0  0  0  0
    0.8537   -0.2740    0.6273 C   0  0  0  0  0  0  0  0  0  0  0  0
  1  8  1  0  0  0  0
  1  2  1  0  0  0  0
  2  4  1  0  0  0  0
  2  3  2  0  0  0  0
  4  5  1  0  0  0  0
  5  6  1  0  0  0  0
  6  7  1  0  0  0  0
  8 10  2  0  0  0  0
  8  9  1  0  0  0  0
 10 11  1  0  0  0  0
 11 12  2  0  0  0  0
 12 13  1  0  0  0  0
 13  1  2  0  0  0  0
M  END
