methyl-3-hydroxybenzoate
 OpenBabel11261423233D

 11 11  0  0  0  0  0  0  0  0999 V2000
    1.9273    0.6992    1.0465 C   0  0  0  0  0  0  0  0  0  0  0  0
    0.9741    1.5230    1.6347 C   0  0  0  0  0  0  0  0  0  0  0  0
   -0.2704    1.6833    1.0361 C   0  0  0  0  0  0  0  0  0  0  0  0
   -0.5609    1.0197   -0.1504 C   0  0  0  0  0  0  0  0  0  0  0  0
   -1.8667    1.1879   -0.7786 C   0  0  0  0  0  0  0  0  0  0  0  0
   -2.7131    1.9207   -0.2542 O   0  0  0  0  0  0  0  0  0  0  0  0
   -2.1553    0.5220   -1.9672 O   0  0  0  0  0  0  0  0  0  0  0  0
   -3.4848    0.8392   -2.3887 C   0  0  0  0  0  0  0  0  0  0  0  0
    1.6359    0.0358   -0.1403 C   0  0  0  0  0  0  0  0  0  0  0  0
    2.5894   -0.7881   -0.7284 O   0  0  0  0  0  0  0  0  0  0  0  0
    0.3916    0.1959   -0.7390 C   0  0  0  0  0  0  0  0  0  0  0  0
  1  9  2  0  0  0  0
  1  2  1  0  0  0  0
  2  3  2  0  0  0  0
  3  4  1  0  0  0  0
  4  5  1  0  0  0  0
  5  7  1  0  0  0  0
  5  6  2  0  0  0  0
  7  8  1  0  0  0  0
  9 11  1  0  0  0  0
  9 10  1  0  0  0  0
 11  4  2  0  0  0  0
M  END
