vanillin(3-methoxy-4-hydroxybenzaldehyde)
 OpenBabel11261423233D

 11 11  0  0  0  0  0  0  0  0999 V2000
    3.1319    1.1139    0.8422 O   0  0  0  0  0  0  0  0  0  0  0  0
    1.7994    1.1031    0.4456 C   0  0  0  0  0  0  0  0  0  0  0  0
    1.0765    2.2901    0.4084 C   0  0  0  0  0  0  0  0  0  0  0  0
   -0.2557    2.2809    0.0121 C   0  0  0  0  0  0  0  0  0  0  0  0
   -0.8640    1.0838   -0.3468 C   0  0  0  0  0  0  0  0  0  0  0  0
   -2.2639    1.0730   -0.7633 C   0  0  0  0  0  0  0  0  0  0  0  0
   -2.9051    2.1291   -0.7958 O   0  0  0  0  0  0  0  0  0  0  0  0
    1.1933   -0.0958    0.0871 C   0  0  0  0  0  0  0  0  0  0  0  0
   -0.1409   -0.1030   -0.3094 C   0  0  0  0  0  0  0  0  0  0  0  0
    1.9402   -1.2848    0.1311 O   0  0  0  0  0  0  0  0  0  0  0  0
    1.1500   -2.4133   -0.2714 C   0  0  0  0  0  0  0  0  0  0  0  0
  1  2  1  0  0  0  0
  2  8  2  0  0  0  0
  2  3  1  0  0  0  0
  3  4  2  0  0  0  0
  4  5  1  0  0  0  0
  5  6  1  0  0  0  0
  6  7  2  0  0  0  0
  8 10  1  0  0  0  0
  8  9  1  0  0  0  0
  9  5  2  0  0  0  0
 10 11  1  0  0  0  0
M  END
