3-ethoxy-4-hydroxybenzaldehyde
 OpenBabel11261423233D

 12 12  0  0  0  0  0  0  0  0999 V2000
    0.0757   -0.5559    1.5301 C   0  0  0  0  0  0  0  0  0  0  0  0
    0.9464   -1.6285    1.3811 C   0  0  0  0  0  0  0  0  0  0  0  0
    0.9153   -2.7341    2.3342 C   0  0  0  0  0  0  0  0  0  0  0  0
    1.6914   -3.6863    2.1978 O   0  0  0  0  0  0  0  0  0  0  0  0
    1.8488   -1.6502    0.3243 C   0  0  0  0  0  0  0  0  0  0  0  0
    1.8857   -0.6018   -0.5923 C   0  0  0  0  0  0  0  0  0  0  0  0
    2.7978   -0.5839   -1.6820 O   0  0  0  0  0  0  0  0  0  0  0  0
    3.6316   -1.7632   -1.7806 C   0  0  0  0  0  0  0  0  0  0  0  0
    2.9035   -2.8989   -2.5556 C   0  0  0  0  0  0  0  0  0  0  0  0
    1.0143    0.4707   -0.4362 C   0  0  0  0  0  0  0  0  0  0  0  0
    1.0471    1.5243   -1.3426 O   0  0  0  0  0  0  0  0  0  0  0  0
    0.1110    0.4943    0.6205 C   0  0  0  0  0  0  0  0  0  0  0  0
  1  2  1  0  0  0  0
  2  5  2  0  0  0  0
  2  3  1  0  0  0  0
  3  4  2  0  0  0  0
  5  6  1  0  0  0  0
  6 10  2  0  0  0  0
  6  7  1  0  0  0  0
  7  8  1  0  0  0  0
  8  9  1  0  0  0  0
 10 12  1  0  0  0  0
 10 11  1  0  0  0  0
 12  1  2  0  0  0  0
M  END
