5-fluoro-2-hydroxyacetophenone
 OpenBabel11261423233D

 11 11  0  0  0  0  0  0  0  0999 V2000
    0.7363    3.6770    0.3625 C   0  0  0  0  0  0  0  0  0  0  0  0
    0.1097    2.3302    0.6212 C   0  0  0  0  0  0  0  0  0  0  0  0
   -1.0297    2.2971    1.0990 O   0  0  0  0  0  0  0  0  0  0  0  0
    0.7934    1.0273    0.3304 C   0  0  0  0  0  0  0  0  0  0  0  0
    2.0803    0.9140   -0.2097 C   0  0  0  0  0  0  0  0  0  0  0  0
    2.8581    2.0218   -0.5325 O   0  0  0  0  0  0  0  0  0  0  0  0
    2.6235   -0.3456   -0.4414 C   0  0  0  0  0  0  0  0  0  0  0  0
    1.9035   -1.4952   -0.1429 C   0  0  0  0  0  0  0  0  0  0  0  0
    0.6277   -1.3861    0.3925 C   0  0  0  0  0  0  0  0  0  0  0  0
   -0.0752   -2.4896    0.6839 F   0  0  0  0  0  0  0  0  0  0  0  0
    0.0807   -0.1308    0.6258 C   0  0  0  0  0  0  0  0  0  0  0  0
  1  2  1  0  0  0  0
  2  4  1  0  0  0  0
  2  3  2  0  0  0  0
  4  5  1  0  0  0  0
  5  7  2  0  0  0  0
  5  6  1  0  0  0  0
  7  8  1  0  0  0  0
  8  9  2  0  0  0  0
  9 11  1  0  0  0  0
  9 10  1  0  0  0  0
 11  4  2  0  0  0  0
M  END
