2,5-dimethylphenol
 OpenBabel11261423233D

  9  9  0  0  0  0  0  0  0  0999 V2000
    1.8372    0.9307    0.5748 C   0  0  0  0  0  0  0  0  0  0  0  0
    0.9446    1.8448    1.1232 C   0  0  0  0  0  0  0  0  0  0  0  0
   -0.4133    1.7443    0.8420 C   0  0  0  0  0  0  0  0  0  0  0  0
   -0.8785    0.7301    0.0127 C   0  0  0  0  0  0  0  0  0  0  0  0
   -2.2367    0.6300   -0.2683 O   0  0  0  0  0  0  0  0  0  0  0  0
   -1.3770    2.7306    1.4336 C   0  0  0  0  0  0  0  0  0  0  0  0
    1.3717   -0.0836   -0.2545 C   0  0  0  0  0  0  0  0  0  0  0  0
    0.0139   -0.1840   -0.5358 C   0  0  0  0  0  0  0  0  0  0  0  0
    2.3351   -1.0700   -0.8463 C   0  0  0  0  0  0  0  0  0  0  0  0
  1  7  2  0  0  0  0
  1  2  1  0  0  0  0
  2  3  2  0  0  0  0
  3  6  1  0  0  0  0
  3  4  1  0  0  0  0
  4  5  1  0  0  0  0
  7  9  1  0  0  0  0
  7  8  1  0  0  0  0
  8  4  2  0  0  0  0
M  END
