4'-hydroxypropiophenone
 OpenBabel11261423233D

 11 11  0  0  0  0  0  0  0  0999 V2000
    0.1172    3.0289   -2.9811 O   0  0  0  0  0  0  0  0  0  0  0  0
    0.2889    1.9766   -2.0884 C   0  0  0  0  0  0  0  0  0  0  0  0
    0.1372    2.1922   -0.7233 C   0  0  0  0  0  0  0  0  0  0  0  0
    0.3021    1.1485    0.1809 C   0  0  0  0  0  0  0  0  0  0  0  0
    0.1376    1.4522    1.6427 C   0  0  0  0  0  0  0  0  0  0  0  0
   -0.0255    2.6345    1.9638 O   0  0  0  0  0  0  0  0  0  0  0  0
    0.2344    0.4133    2.7736 C   0  0  0  0  0  0  0  0  0  0  0  0
   -0.5992   -0.8772    2.5460 C   0  0  0  0  0  0  0  0  0  0  0  0
    0.6325   -0.1164   -0.3006 C   0  0  0  0  0  0  0  0  0  0  0  0
    0.7851   -0.3368   -1.6646 C   0  0  0  0  0  0  0  0  0  0  0  0
    0.6123    0.7107   -2.5609 C   0  0  0  0  0  0  0  0  0  0  0  0
  1  2  1  0  0  0  0
  2  3  1  0  0  0  0
  3  4  2  0  0  0  0
  4  9  1  0  0  0  0
  4  5  1  0  0  0  0
  5  7  1  0  0  0  0
  5  6  2  0  0  0  0
  7  8  1  0  0  0  0
  9 10  2  0  0  0  0
 10 11  1  0  0  0  0
 11  2  2  0  0  0  0
M  END
