2,3-dimethylphenol
 OpenBabel11261423233D

  9  9  0  0  0  0  0  0  0  0999 V2000
    1.8989    0.8474    0.8074 C   0  0  0  0  0  0  0  0  0  0  0  0
    1.0935    1.9594    1.0248 C   0  0  0  0  0  0  0  0  0  0  0  0
   -0.2398    1.9390    0.6316 C   0  0  0  0  0  0  0  0  0  0  0  0
   -1.0453    3.0514    0.8491 O   0  0  0  0  0  0  0  0  0  0  0  0
   -0.7691    0.8076    0.0209 C   0  0  0  0  0  0  0  0  0  0  0  0
   -2.2122    0.7946   -0.4010 C   0  0  0  0  0  0  0  0  0  0  0  0
    1.3705   -0.2844    0.1969 C   0  0  0  0  0  0  0  0  0  0  0  0
    0.0371   -0.3056   -0.1967 C   0  0  0  0  0  0  0  0  0  0  0  0
   -0.5262   -1.5337   -0.8563 C   0  0  0  0  0  0  0  0  0  0  0  0
  1  7  2  0  0  0  0
  1  2  1  0  0  0  0
  2  3  2  0  0  0  0
  3  5  1  0  0  0  0
  3  4  1  0  0  0  0
  5  6  1  0  0  0  0
  7  8  1  0  0  0  0
  8  9  1  0  0  0  0
  8  5  2  0  0  0  0
M  END
