salicylhydrazide
 OpenBabel11261423233D

 11 11  0  0  0  0  0  0  0  0999 V2000
    2.0051    1.0795    1.0877 C   0  0  0  0  0  0  0  0  0  0  0  0
    1.2978    2.2706    0.9750 C   0  0  0  0  0  0  0  0  0  0  0  0
    0.0698    2.2897    0.3241 C   0  0  0  0  0  0  0  0  0  0  0  0
   -0.4543    1.1202   -0.2154 C   0  0  0  0  0  0  0  0  0  0  0  0
   -1.7535    1.1661   -0.8983 C   0  0  0  0  0  0  0  0  0  0  0  0
   -2.3603    2.2393   -0.9836 O   0  0  0  0  0  0  0  0  0  0  0  0
   -2.3104    0.0129   -1.4516 N   0  0  0  0  0  0  0  0  0  0  0  0
   -3.5180    0.0752   -2.0820 N   0  0  0  0  0  0  0  0  0  0  0  0
    1.4830   -0.0908    0.5491 C   0  0  0  0  0  0  0  0  0  0  0  0
    0.2547   -0.0730   -0.1023 C   0  0  0  0  0  0  0  0  0  0  0  0
   -0.2534   -1.2525   -0.6354 O   0  0  0  0  0  0  0  0  0  0  0  0
  1  9  2  0  0  0  0
  1  2  1  0  0  0  0
  2  3  2  0  0  0  0
  3  4  1  0  0  0  0
  4  5  1  0  0  0  0
  5  7  1  0  0  0  0
  5  6  2  0  0  0  0
  7  8  1  0  0  0  0
  9 10  1  0  0  0  0
 10 11  1  0  0  0  0
 10  4  2  0  0  0  0
M  END
