2-chlorophenol
 OpenBabel11261423233D

  8  8  0  0  0  0  0  0  0  0999 V2000
    3.1915    1.3729    0.1102 Cl  0  0  0  0  0  0  0  0  0  0  0  0
    1.4817    1.1321    0.1668 C   0  0  0  0  0  0  0  0  0  0  0  0
    0.6354    2.2080    0.4102 C   0  0  0  0  0  0  0  0  0  0  0  0
   -0.7405    2.0133    0.4556 C   0  0  0  0  0  0  0  0  0  0  0  0
   -1.2700    0.7429    0.2575 C   0  0  0  0  0  0  0  0  0  0  0  0
    0.9523   -0.1381   -0.0312 C   0  0  0  0  0  0  0  0  0  0  0  0
   -0.4235   -0.3330    0.0141 C   0  0  0  0  0  0  0  0  0  0  0  0
    1.7996   -1.2136   -0.2746 O   0  0  0  0  0  0  0  0  0  0  0  0
  1  2  1  0  0  0  0
  2  6  2  0  0  0  0
  2  3  1  0  0  0  0
  3  4  2  0  0  0  0
  4  5  1  0  0  0  0
  6  8  1  0  0  0  0
  6  7  1  0  0  0  0
  7  5  2  0  0  0  0
M  END
