salicylaldoxime
 OpenBabel11261423233D

 10 10  0  0  0  0  0  0  0  0999 V2000
    1.9670    0.8595    1.0740 C   0  0  0  0  0  0  0  0  0  0  0  0
    1.3686    2.0945    0.8557 C   0  0  0  0  0  0  0  0  0  0  0  0
    0.1481    2.1680    0.1945 C   0  0  0  0  0  0  0  0  0  0  0  0
   -0.4831    1.0109   -0.2531 C   0  0  0  0  0  0  0  0  0  0  0  0
   -1.7935    1.0403   -0.9674 C   0  0  0  0  0  0  0  0  0  0  0  0
   -2.4682    2.0929   -1.2435 N   0  0  0  0  0  0  0  0  0  0  0  0
   -2.0825    3.3212   -0.9239 O   0  0  0  0  0  0  0  0  0  0  0  0
    1.3417   -0.2992    0.6295 C   0  0  0  0  0  0  0  0  0  0  0  0
    0.1210   -0.2223   -0.0316 C   0  0  0  0  0  0  0  0  0  0  0  0
   -0.5004   -1.3848   -0.4742 O   0  0  0  0  0  0  0  0  0  0  0  0
  1  8  2  0  0  0  0
  1  2  1  0  0  0  0
  2  3  2  0  0  0  0
  3  4  1  0  0  0  0
  4  5  1  0  0  0  0
  5  6  2  0  0  0  0
  6  7  1  0  0  0  0
  8  9  1  0  0  0  0
  9 10  1  0  0  0  0
  9  4  2  0  0  0  0
M  END
