2,3,6-trimethylphenol
 OpenBabel11261423233D

 10 10  0  0  0  0  0  0  0  0999 V2000
   -1.5458    2.0695   -0.8847 O   0  0  0  0  0  0  0  0  0  0  0  0
   -0.4164    1.4007   -0.4259 C   0  0  0  0  0  0  0  0  0  0  0  0
    0.5522    2.0884    0.2963 C   0  0  0  0  0  0  0  0  0  0  0  0
    0.3714    3.5541    0.5771 C   0  0  0  0  0  0  0  0  0  0  0  0
    1.6824    1.4186    0.7552 C   0  0  0  0  0  0  0  0  0  0  0  0
    2.7353    2.1537    1.5370 C   0  0  0  0  0  0  0  0  0  0  0  0
    1.8409    0.0628    0.4906 C   0  0  0  0  0  0  0  0  0  0  0  0
    0.8719   -0.6241   -0.2317 C   0  0  0  0  0  0  0  0  0  0  0  0
   -0.2569    0.0453   -0.6899 C   0  0  0  0  0  0  0  0  0  0  0  0
   -1.3035   -0.6948   -1.4695 C   0  0  0  0  0  0  0  0  0  0  0  0
  1  2  1  0  0  0  0
  2  3  1  0  0  0  0
  3  5  2  0  0  0  0
  3  4  1  0  0  0  0
  5  7  1  0  0  0  0
  5  6  1  0  0  0  0
  7  8  2  0  0  0  0
  8  9  1  0  0  0  0
  9 10  1  0  0  0  0
  9  2  2  0  0  0  0
M  END
