5-bromo-2-hydroxybenzylalcohol
 OpenBabel11261423233D

 10 10  0  0  0  0  0  0  0  0999 V2000
    1.0303   -1.1651    1.1812 C   0  0  0  0  0  0  0  0  0  0  0  0
    2.3427   -1.1657    0.7211 C   0  0  0  0  0  0  0  0  0  0  0  0
    3.2595   -2.0310    1.3081 O   0  0  0  0  0  0  0  0  0  0  0  0
    2.7174   -0.3069   -0.3125 C   0  0  0  0  0  0  0  0  0  0  0  0
    4.1360   -0.2676   -0.8519 C   0  0  0  0  0  0  0  0  0  0  0  0
    4.9946   -1.1913   -0.1830 O   0  0  0  0  0  0  0  0  0  0  0  0
    1.7713    0.5439   -0.8742 C   0  0  0  0  0  0  0  0  0  0  0  0
    0.4605    0.5426   -0.4126 C   0  0  0  0  0  0  0  0  0  0  0  0
   -0.8223    1.7105   -1.1890 Br  0  0  0  0  0  0  0  0  0  0  0  0
    0.0887   -0.3131    0.6168 C   0  0  0  0  0  0  0  0  0  0  0  0
  1  2  1  0  0  0  0
  2  4  2  0  0  0  0
  2  3  1  0  0  0  0
  4  7  1  0  0  0  0
  4  5  1  0  0  0  0
  5  6  1  0  0  0  0
  7  8  2  0  0  0  0
  8 10  1  0  0  0  0
  8  9  1  0  0  0  0
 10  1  2  0  0  0  0
M  END
