salicylhydroxamicacid
 OpenBabel11261423233D

 11 11  0  0  0  0  0  0  0  0999 V2000
   -0.2714    1.4702   -1.0206 C   0  0  0  0  0  0  0  0  0  0  0  0
    0.5505    2.0672   -0.0713 C   0  0  0  0  0  0  0  0  0  0  0  0
    0.4224    3.5035    0.1899 C   0  0  0  0  0  0  0  0  0  0  0  0
    1.1421    4.0559    1.0290 O   0  0  0  0  0  0  0  0  0  0  0  0
   -0.5197    4.2521   -0.5150 N   0  0  0  0  0  0  0  0  0  0  0  0
   -0.6398    5.5500   -0.2832 O   0  0  0  0  0  0  0  0  0  0  0  0
    1.4835    1.2995    0.6197 C   0  0  0  0  0  0  0  0  0  0  0  0
    2.3117    1.8846    1.5718 O   0  0  0  0  0  0  0  0  0  0  0  0
    1.5914   -0.0620    0.3591 C   0  0  0  0  0  0  0  0  0  0  0  0
    0.7689   -0.6576   -0.5903 C   0  0  0  0  0  0  0  0  0  0  0  0
   -0.1629    0.1090   -1.2805 C   0  0  0  0  0  0  0  0  0  0  0  0
  1  2  1  0  0  0  0
  2  7  2  0  0  0  0
  2  3  1  0  0  0  0
  3  5  1  0  0  0  0
  3  4  2  0  0  0  0
  5  6  1  0  0  0  0
  7  9  1  0  0  0  0
  7  8  1  0  0  0  0
  9 10  2  0  0  0  0
 10 11  1  0  0  0  0
 11  1  2  0  0  0  0
M  END
