2-chloro-5-methylphenol
 OpenBabel11261423233D

  9  9  0  0  0  0  0  0  0  0999 V2000
    0.1781    2.5219   -0.2470 O   0  0  0  0  0  0  0  0  0  0  0  0
    0.7470    1.2623   -0.0954 C   0  0  0  0  0  0  0  0  0  0  0  0
    2.0321    1.0192   -0.5668 C   0  0  0  0  0  0  0  0  0  0  0  0
    2.9208    2.2826   -1.3405 Cl  0  0  0  0  0  0  0  0  0  0  0  0
    2.6018   -0.2400   -0.4156 C   0  0  0  0  0  0  0  0  0  0  0  0
    1.8858   -1.2562    0.2071 C   0  0  0  0  0  0  0  0  0  0  0  0
    0.6006   -1.0129    0.6785 C   0  0  0  0  0  0  0  0  0  0  0  0
   -0.1721   -2.1098    1.3506 C   0  0  0  0  0  0  0  0  0  0  0  0
    0.0309    0.2463    0.5273 C   0  0  0  0  0  0  0  0  0  0  0  0
  1  2  1  0  0  0  0
  2  3  1  0  0  0  0
  3  5  2  0  0  0  0
  3  4  1  0  0  0  0
  5  6  1  0  0  0  0
  6  7  2  0  0  0  0
  7  9  1  0  0  0  0
  7  8  1  0  0  0  0
  9  2  2  0  0  0  0
M  END
