2,6-difluorophenol
 OpenBabel11261423233D

  9  9  0  0  0  0  0  0  0  0999 V2000
   -1.0239   -0.3050   -0.0436 C   0  0  0  0  0  0  0  0  0  0  0  0
   -0.5637   -1.6155    0.0185 C   0  0  0  0  0  0  0  0  0  0  0  0
    0.8025   -1.8716    0.0484 C   0  0  0  0  0  0  0  0  0  0  0  0
    1.2469   -3.1347    0.1083 F   0  0  0  0  0  0  0  0  0  0  0  0
    1.7083   -0.8176    0.0163 C   0  0  0  0  0  0  0  0  0  0  0  0
    3.0744   -1.0739    0.0462 O   0  0  0  0  0  0  0  0  0  0  0  0
    1.2482    0.4927   -0.0458 C   0  0  0  0  0  0  0  0  0  0  0  0
    2.1221    1.5085   -0.0767 F   0  0  0  0  0  0  0  0  0  0  0  0
   -0.1179    0.7493   -0.0757 C   0  0  0  0  0  0  0  0  0  0  0  0
  1  2  1  0  0  0  0
  2  3  2  0  0  0  0
  3  5  1  0  0  0  0
  3  4  1  0  0  0  0
  5  7  2  0  0  0  0
  5  6  1  0  0  0  0
  7  9  1  0  0  0  0
  7  8  1  0  0  0  0
  9  1  2  0  0  0  0
M  END
