4-cyanophenol
 OpenBabel11261423233D

  9  9  0  0  0  0  0  0  0  0999 V2000
    1.7841    1.0499   -0.0363 C   0  0  0  0  0  0  0  0  0  0  0  0
    1.0308    1.7281    0.9151 C   0  0  0  0  0  0  0  0  0  0  0  0
   -0.2421    1.2759    1.2441 C   0  0  0  0  0  0  0  0  0  0  0  0
   -0.7637    0.1485    0.6200 C   0  0  0  0  0  0  0  0  0  0  0  0
   -1.0065    1.9602    2.2284 C   0  0  0  0  0  0  0  0  0  0  0  0
   -1.6253    2.5138    3.0251 N   0  0  0  0  0  0  0  0  0  0  0  0
    1.2643   -0.0802   -0.6576 C   0  0  0  0  0  0  0  0  0  0  0  0
   -0.0104   -0.5296   -0.3314 C   0  0  0  0  0  0  0  0  0  0  0  0
    2.0209   -0.7634   -1.6029 O   0  0  0  0  0  0  0  0  0  0  0  0
  1  7  2  0  0  0  0
  1  2  1  0  0  0  0
  2  3  2  0  0  0  0
  3  5  1  0  0  0  0
  3  4  1  0  0  0  0
  5  6  3  0  0  0  0
  7  9  1  0  0  0  0
  7  8  1  0  0  0  0
  8  4  2  0  0  0  0
M  END
