4-chlorophenol
 OpenBabel11261423233D

  8  8  0  0  0  0  0  0  0  0999 V2000
    3.4000    1.2403    0.4652 Cl  0  0  0  0  0  0  0  0  0  0  0  0
    1.6950    1.0838    0.2335 C   0  0  0  0  0  0  0  0  0  0  0  0
    0.8549    2.1570    0.5085 C   0  0  0  0  0  0  0  0  0  0  0  0
   -0.5172    2.0311    0.3221 C   0  0  0  0  0  0  0  0  0  0  0  0
   -1.0486    0.8320   -0.1393 C   0  0  0  0  0  0  0  0  0  0  0  0
   -2.4211    0.7060   -0.3258 O   0  0  0  0  0  0  0  0  0  0  0  0
    1.1635   -0.1153   -0.2279 C   0  0  0  0  0  0  0  0  0  0  0  0
   -0.2085   -0.2413   -0.4144 C   0  0  0  0  0  0  0  0  0  0  0  0
  1  2  1  0  0  0  0
  2  7  2  0  0  0  0
  2  3  1  0  0  0  0
  3  4  2  0  0  0  0
  4  5  1  0  0  0  0
  5  6  1  0  0  0  0
  7  8  1  0  0  0  0
  8  5  2  0  0  0  0
M  END
