5-methyl-2-nitrophenol
 OpenBabel11261423233D

 11 11  0  0  0  0  0  0  0  0999 V2000
    0.2042    2.4296    0.4085 O   0  0  0  0  0  0  0  0  0  0  0  0
    0.7806    1.1633    0.3086 C   0  0  0  0  0  0  0  0  0  0  0  0
    2.1212    0.9912   -0.0464 C   0  0  0  0  0  0  0  0  0  0  0  0
    2.9840    2.0856   -0.3283 N   0  0  0  0  0  0  0  0  0  0  0  0
    4.0203    1.5944   -0.5869 O   0  0  0  0  0  0  0  0  0  0  0  0
    2.3569    3.0685   -0.2021 O   0  0  0  0  0  0  0  0  0  0  0  0
    2.6451   -0.2950   -0.1313 C   0  0  0  0  0  0  0  0  0  0  0  0
    1.8496   -1.4031    0.1329 C   0  0  0  0  0  0  0  0  0  0  0  0
    0.5177   -1.2290    0.4855 C   0  0  0  0  0  0  0  0  0  0  0  0
   -0.3465   -2.4217    0.7721 C   0  0  0  0  0  0  0  0  0  0  0  0
   -0.0129    0.0520    0.5724 C   0  0  0  0  0  0  0  0  0  0  0  0
  1  2  1  0  0  0  0
  2  3  1  0  0  0  0
  3  7  2  0  0  0  0
  3  4  1  0  0  0  0
  4  6  2  0  0  0  0
  4  5  2  0  0  0  0
  7  8  1  0  0  0  0
  8  9  2  0  0  0  0
  9 11  1  0  0  0  0
  9 10  1  0  0  0  0
 11  2  2  0  0  0  0
M  END
