3-isopropylphenol
 OpenBabel11261423233D

 10 10  0  0  0  0  0  0  0  0999 V2000
    1.8923    1.1038    0.6261 C   0  0  0  0  0  0  0  0  0  0  0  0
    1.1349    2.2557    0.8059 C   0  0  0  0  0  0  0  0  0  0  0  0
   -0.2443    2.2137    0.6359 C   0  0  0  0  0  0  0  0  0  0  0  0
   -1.0024    3.3654    0.8152 O   0  0  0  0  0  0  0  0  0  0  0  0
   -0.8659    1.0203    0.2865 C   0  0  0  0  0  0  0  0  0  0  0  0
    1.2703   -0.0895    0.2768 C   0  0  0  0  0  0  0  0  0  0  0  0
   -0.1094   -0.1327    0.1071 C   0  0  0  0  0  0  0  0  0  0  0  0
   -0.7833   -1.4257   -0.2724 C   0  0  0  0  0  0  0  0  0  0  0  0
   -2.2619   -1.4739    0.1594 C   0  0  0  0  0  0  0  0  0  0  0  0
    0.0290   -2.6656    0.1494 C   0  0  0  0  0  0  0  0  0  0  0  0
  1  6  2  0  0  0  0
  1  2  1  0  0  0  0
  2  3  2  0  0  0  0
  3  5  1  0  0  0  0
  3  4  1  0  0  0  0
  6  7  1  0  0  0  0
  7  8  1  0  0  0  0
  7  5  2  0  0  0  0
  8 10  1  0  0  0  0
  8  9  1  0  0  0  0
M  END
