4-bromophenol
 OpenBabel11261423233D

  8  8  0  0  0  0  0  0  0  0999 V2000
    3.5531    1.2498    0.4627 Br  0  0  0  0  0  0  0  0  0  0  0  0
    1.6754    1.0799    0.2206 C   0  0  0  0  0  0  0  0  0  0  0  0
    0.8387    2.1547    0.4998 C   0  0  0  0  0  0  0  0  0  0  0  0
   -0.5347    2.0305    0.3227 C   0  0  0  0  0  0  0  0  0  0  0  0
   -1.0710    0.8315   -0.1335 C   0  0  0  0  0  0  0  0  0  0  0  0
   -2.4448    0.7072   -0.3106 O   0  0  0  0  0  0  0  0  0  0  0  0
    1.1392   -0.1190   -0.2356 C   0  0  0  0  0  0  0  0  0  0  0  0
   -0.2342   -0.2433   -0.4127 C   0  0  0  0  0  0  0  0  0  0  0  0
  1  2  1  0  0  0  0
  2  7  2  0  0  0  0
  2  3  1  0  0  0  0
  3  4  2  0  0  0  0
  4  5  1  0  0  0  0
  5  6  1  0  0  0  0
  7  8  1  0  0  0  0
  8  5  2  0  0  0  0
M  END
