2-chloro-4,5-dimethylphenol
 OpenBabel11261423233D

 10 10  0  0  0  0  0  0  0  0999 V2000
    0.1044   -0.2348    0.9549 C   0  0  0  0  0  0  0  0  0  0  0  0
   -0.9578    0.0670    1.9753 C   0  0  0  0  0  0  0  0  0  0  0  0
    0.8048   -1.4365    1.0037 C   0  0  0  0  0  0  0  0  0  0  0  0
    0.5070   -2.4460    2.0772 C   0  0  0  0  0  0  0  0  0  0  0  0
    1.7855   -1.7073    0.0560 C   0  0  0  0  0  0  0  0  0  0  0  0
    2.0667   -0.7789   -0.9397 C   0  0  0  0  0  0  0  0  0  0  0  0
    3.2852   -1.1162   -2.1167 Cl  0  0  0  0  0  0  0  0  0  0  0  0
    1.3671    0.4213   -0.9884 C   0  0  0  0  0  0  0  0  0  0  0  0
    1.6486    1.3497   -1.9844 O   0  0  0  0  0  0  0  0  0  0  0  0
    0.3864    0.6931   -0.0414 C   0  0  0  0  0  0  0  0  0  0  0  0
  1  3  1  0  0  0  0
  1  2  1  0  0  0  0
  3  5  2  0  0  0  0
  3  4  1  0  0  0  0
  5  6  1  0  0  0  0
  6  8  2  0  0  0  0
  6  7  1  0  0  0  0
  8 10  1  0  0  0  0
  8  9  1  0  0  0  0
 10  1  2  0  0  0  0
M  END
