4-butoxyphenol
 OpenBabel11261423233D

 12 12  0  0  0  0  0  0  0  0999 V2000
    3.3816    0.1583    2.5707 O   0  0  0  0  0  0  0  0  0  0  0  0
    2.2597    0.3662    1.7761 C   0  0  0  0  0  0  0  0  0  0  0  0
    1.7238    1.6434    1.6510 C   0  0  0  0  0  0  0  0  0  0  0  0
    0.6044    1.8514    0.8545 C   0  0  0  0  0  0  0  0  0  0  0  0
    0.0175    0.7828    0.1807 C   0  0  0  0  0  0  0  0  0  0  0  0
   -1.1050    0.9770   -0.6366 O   0  0  0  0  0  0  0  0  0  0  0  0
   -1.5179    2.3524   -0.6412 C   0  0  0  0  0  0  0  0  0  0  0  0
   -2.6489    2.6126   -1.6773 C   0  0  0  0  0  0  0  0  0  0  0  0
   -2.1493    2.4981   -3.1528 C   0  0  0  0  0  0  0  0  0  0  0  0
   -1.7010    1.0676   -3.5241 C   0  0  0  0  0  0  0  0  0  0  0  0
    1.6746   -0.7014    1.1063 C   0  0  0  0  0  0  0  0  0  0  0  0
    0.5546   -0.4921    0.3087 C   0  0  0  0  0  0  0  0  0  0  0  0
  1  2  1  0  0  0  0
  2 11  2  0  0  0  0
  2  3  1  0  0  0  0
  3  4  2  0  0  0  0
  4  5  1  0  0  0  0
  5  6  1  0  0  0  0
  6  7  1  0  0  0  0
  7  8  1  0  0  0  0
  8  9  1  0  0  0  0
  9 10  1  0  0  0  0
 11 12  1  0  0  0  0
 12  5  2  0  0  0  0
M  END
