2-methoxy-4-propenylphenol
 OpenBabel11261423233D

 12 12  0  0  0  0  0  0  0  0999 V2000
   -1.2514    0.5822   -2.1326 O   0  0  0  0  0  0  0  0  0  0  0  0
   -0.2927    0.7722   -1.1343 C   0  0  0  0  0  0  0  0  0  0  0  0
    0.6544    1.7648   -1.3601 C   0  0  0  0  0  0  0  0  0  0  0  0
    1.6486    2.0314   -0.4291 C   0  0  0  0  0  0  0  0  0  0  0  0
    1.7149    1.3049    0.7538 C   0  0  0  0  0  0  0  0  0  0  0  0
    2.7602    1.5209    1.8297 C   0  0  0  0  0  0  0  0  0  0  0  0
    3.7804    2.4024    1.8847 C   0  0  0  0  0  0  0  0  0  0  0  0
    4.1543    3.4413    0.8472 C   0  0  0  0  0  0  0  0  0  0  0  0
    0.7660    0.3137    0.9747 C   0  0  0  0  0  0  0  0  0  0  0  0
   -0.2402    0.0286    0.0558 C   0  0  0  0  0  0  0  0  0  0  0  0
   -1.1466   -1.0348    0.4432 O   0  0  0  0  0  0  0  0  0  0  0  0
   -2.2102   -1.3865   -0.4511 C   0  0  0  0  0  0  0  0  0  0  0  0
  1  2  1  0  0  0  0
  2  3  1  0  0  0  0
  3  4  2  0  0  0  0
  4  5  1  0  0  0  0
  5  9  2  0  0  0  0
  5  6  1  0  0  0  0
  6  7  2  0  0  0  0
  7  8  1  0  0  0  0
  9 10  1  0  0  0  0
 10 11  1  0  0  0  0
 10  2  2  0  0  0  0
 11 12  1  0  0  0  0
M  END
