3-chloro-5-methoxyphenol
 OpenBabel11261423233D

 10 10  0  0  0  0  0  0  0  0999 V2000
    0.0434    0.1915    1.1622 C   0  0  0  0  0  0  0  0  0  0  0  0
   -1.0547    0.3616    1.9982 O   0  0  0  0  0  0  0  0  0  0  0  0
    1.1413   -0.5415    1.5978 C   0  0  0  0  0  0  0  0  0  0  0  0
    2.2383   -0.7109    0.7613 C   0  0  0  0  0  0  0  0  0  0  0  0
    3.6037   -1.6215    1.3006 Cl  0  0  0  0  0  0  0  0  0  0  0  0
    2.2370   -0.1474   -0.5098 C   0  0  0  0  0  0  0  0  0  0  0  0
    1.1387    0.5870   -0.9482 C   0  0  0  0  0  0  0  0  0  0  0  0
    1.1203    1.1635   -2.2297 O   0  0  0  0  0  0  0  0  0  0  0  0
    2.3328    0.8841   -2.9460 C   0  0  0  0  0  0  0  0  0  0  0  0
    0.0428    0.7546   -0.1090 C   0  0  0  0  0  0  0  0  0  0  0  0
  1  3  1  0  0  0  0
  1  2  1  0  0  0  0
  3  4  2  0  0  0  0
  4  6  1  0  0  0  0
  4  5  1  0  0  0  0
  6  7  2  0  0  0  0
  7 10  1  0  0  0  0
  7  8  1  0  0  0  0
  8  9  1  0  0  0  0
 10  1  2  0  0  0  0
M  END
