2-isopropylphenol
 OpenBabel11261423233D

 10 10  0  0  0  0  0  0  0  0999 V2000
    1.9807    1.0537    0.9244 C   0  0  0  0  0  0  0  0  0  0  0  0
    1.3510    2.2553    0.6286 C   0  0  0  0  0  0  0  0  0  0  0  0
    0.1020    2.2498    0.0196 C   0  0  0  0  0  0  0  0  0  0  0  0
   -0.5318    1.0517   -0.2971 C   0  0  0  0  0  0  0  0  0  0  0  0
   -1.9090    1.1201   -0.9710 C   0  0  0  0  0  0  0  0  0  0  0  0
   -2.4862    2.5499   -0.9411 C   0  0  0  0  0  0  0  0  0  0  0  0
   -2.9362    0.0829   -0.4592 C   0  0  0  0  0  0  0  0  0  0  0  0
    1.3587   -0.1468    0.6057 C   0  0  0  0  0  0  0  0  0  0  0  0
    0.1079   -0.1561   -0.0027 C   0  0  0  0  0  0  0  0  0  0  0  0
   -0.4642   -1.3880   -0.3139 O   0  0  0  0  0  0  0  0  0  0  0  0
  1  8  2  0  0  0  0
  1  2  1  0  0  0  0
  2  3  2  0  0  0  0
  3  4  1  0  0  0  0
  4  5  1  0  0  0  0
  5  7  1  0  0  0  0
  5  6  1  0  0  0  0
  8  9  1  0  0  0  0
  9 10  1  0  0  0  0
  9  4  2  0  0  0  0
M  END
