4-iodophenol
 OpenBabel11261423233D

  8  8  0  0  0  0  0  0  0  0999 V2000
    3.6954    1.2534    0.4598 I   0  0  0  0  0  0  0  0  0  0  0  0
    1.6576    1.0745    0.2102 C   0  0  0  0  0  0  0  0  0  0  0  0
    0.8254    2.1514    0.4947 C   0  0  0  0  0  0  0  0  0  0  0  0
   -0.5494    2.0307    0.3263 C   0  0  0  0  0  0  0  0  0  0  0  0
   -1.0916    0.8331   -0.1266 C   0  0  0  0  0  0  0  0  0  0  0  0
   -2.4669    0.7124   -0.2951 O   0  0  0  0  0  0  0  0  0  0  0  0
    1.1154   -0.1231   -0.2426 C   0  0  0  0  0  0  0  0  0  0  0  0
   -0.2594   -0.2438   -0.4111 C   0  0  0  0  0  0  0  0  0  0  0  0
  1  2  1  0  0  0  0
  2  7  2  0  0  0  0
  2  3  1  0  0  0  0
  3  4  2  0  0  0  0
  4  5  1  0  0  0  0
  5  6  1  0  0  0  0
  7  8  1  0  0  0  0
  8  5  2  0  0  0  0
M  END
