4-(tert.)butylphenol
 OpenBabel11261423233D

 11 11  0  0  0  0  0  0  0  0999 V2000
    3.3488    0.9667    1.1297 O   0  0  0  0  0  0  0  0  0  0  0  0
    2.0529    0.9823    0.6252 C   0  0  0  0  0  0  0  0  0  0  0  0
    1.2709    2.1246    0.7529 C   0  0  0  0  0  0  0  0  0  0  0  0
   -0.0244    2.1399    0.2484 C   0  0  0  0  0  0  0  0  0  0  0  0
   -0.5391    1.0136   -0.3848 C   0  0  0  0  0  0  0  0  0  0  0  0
   -1.9444    1.0270   -0.9305 C   0  0  0  0  0  0  0  0  0  0  0  0
   -2.4612    2.4700   -1.0988 C   0  0  0  0  0  0  0  0  0  0  0  0
   -2.8481    0.2900    0.0743 C   0  0  0  0  0  0  0  0  0  0  0  0
   -2.0047    0.2395   -2.2539 C   0  0  0  0  0  0  0  0  0  0  0  0
    1.5395   -0.1446   -0.0067 C   0  0  0  0  0  0  0  0  0  0  0  0
    0.2441   -0.1287   -0.5110 C   0  0  0  0  0  0  0  0  0  0  0  0
  1  2  1  0  0  0  0
  2 10  2  0  0  0  0
  2  3  1  0  0  0  0
  3  4  2  0  0  0  0
  4  5  1  0  0  0  0
  5  6  1  0  0  0  0
  6  9  1  0  0  0  0
  6  8  1  0  0  0  0
  6  7  1  0  0  0  0
 10 11  1  0  0  0  0
 11  5  2  0  0  0  0
M  END
