2,2',4,4'-tetrahydroxybenzophenone
 OpenBabel11261423233D

 18 19  0  0  0  0  0  0  0  0999 V2000
    0.5395   -1.7117    4.1340 O   0  0  0  0  0  0  0  0  0  0  0  0
    0.7788   -0.9144    3.0203 C   0  0  0  0  0  0  0  0  0  0  0  0
    1.1383   -1.4936    1.8120 C   0  0  0  0  0  0  0  0  0  0  0  0
    1.3768   -0.7101    0.6875 C   0  0  0  0  0  0  0  0  0  0  0  0
    1.7586   -1.3696   -0.4565 O   0  0  0  0  0  0  0  0  0  0  0  0
    1.2547    0.6847    0.7635 C   0  0  0  0  0  0  0  0  0  0  0  0
    1.4816    1.6975   -0.3604 C   0  0  0  0  0  0  0  0  0  0  0  0
    1.5967    2.8712    0.0072 O   0  0  0  0  0  0  0  0  0  0  0  0
    1.5021    1.4543   -1.8643 C   0  0  0  0  0  0  0  0  0  0  0  0
    1.8897    2.5008   -2.7021 C   0  0  0  0  0  0  0  0  0  0  0  0
    2.2730    3.7269   -2.1689 O   0  0  0  0  0  0  0  0  0  0  0  0
    1.9033    2.3346   -4.0826 C   0  0  0  0  0  0  0  0  0  0  0  0
    1.5243    1.1239   -4.6471 C   0  0  0  0  0  0  0  0  0  0  0  0
    1.5372    0.9601   -6.0276 O   0  0  0  0  0  0  0  0  0  0  0  0
    1.1291    0.0784   -3.8251 C   0  0  0  0  0  0  0  0  0  0  0  0
    1.1185    0.2516   -2.4469 C   0  0  0  0  0  0  0  0  0  0  0  0
    0.9096    1.2484    1.9897 C   0  0  0  0  0  0  0  0  0  0  0  0
    0.6683    0.4648    3.1106 C   0  0  0  0  0  0  0  0  0  0  0  0
  1  2  1  0  0  0  0
  2  3  1  0  0  0  0
  3  4  2  0  0  0  0
  4  6  1  0  0  0  0
  4  5  1  0  0  0  0
  6 17  2  0  0  0  0
  6  7  1  0  0  0  0
  7  9  1  0  0  0  0
  7  8  2  0  0  0  0
  9 10  1  0  0  0  0
 10 12  2  0  0  0  0
 10 11  1  0  0  0  0
 12 13  1  0  0  0  0
 13 15  2  0  0  0  0
 13 14  1  0  0  0  0
 15 16  1  0  0  0  0
 16  9  2  0  0  0  0
 17 18  1  0  0  0  0
 18  2  2  0  0  0  0
M  END
