benzyl-4-hydroxyphenyl ketone
 OpenBabel11261423233D

 16 17  0  0  0  0  0  0  0  0999 V2000
    2.4663   -2.5671    0.2882 C   0  0  0  0  0  0  0  0  0  0  0  0
    2.3531   -1.6975   -0.7903 C   0  0  0  0  0  0  0  0  0  0  0  0
    2.2615   -0.3280   -0.5712 C   0  0  0  0  0  0  0  0  0  0  0  0
    2.2819    0.1760    0.7258 C   0  0  0  0  0  0  0  0  0  0  0  0
    2.1784    1.6662    0.9818 C   0  0  0  0  0  0  0  0  0  0  0  0
    1.9050    2.4318   -0.2913 C   0  0  0  0  0  0  0  0  0  0  0  0
    2.8364    2.9871   -0.8843 O   0  0  0  0  0  0  0  0  0  0  0  0
    0.5313    2.5600   -0.8099 C   0  0  0  0  0  0  0  0  0  0  0  0
   -0.5342    1.9751   -0.1349 C   0  0  0  0  0  0  0  0  0  0  0  0
   -1.8266    2.0958   -0.6327 C   0  0  0  0  0  0  0  0  0  0  0  0
   -2.0538    2.8035   -1.8068 C   0  0  0  0  0  0  0  0  0  0  0  0
   -3.3459    2.9238   -2.3062 O   0  0  0  0  0  0  0  0  0  0  0  0
   -0.9895    3.3912   -2.4819 C   0  0  0  0  0  0  0  0  0  0  0  0
    0.3023    3.2697   -1.9840 C   0  0  0  0  0  0  0  0  0  0  0  0
    2.3977   -0.6957    1.8026 C   0  0  0  0  0  0  0  0  0  0  0  0
    2.4894   -2.0657    1.5847 C   0  0  0  0  0  0  0  0  0  0  0  0
  1  2  1  0  0  0  0
  2  3  2  0  0  0  0
  3  4  1  0  0  0  0
  4 15  2  0  0  0  0
  4  5  1  0  0  0  0
  5  6  1  0  0  0  0
  6  8  1  0  0  0  0
  6  7  2  0  0  0  0
  8  9  1  0  0  0  0
  9 10  2  0  0  0  0
 10 11  1  0  0  0  0
 11 13  2  0  0  0  0
 11 12  1  0  0  0  0
 13 14  1  0  0  0  0
 14  8  2  0  0  0  0
 15 16  1  0  0  0  0
 16  1  2  0  0  0  0
M  END
