4-chloro-3-ethylphenol
 OpenBabel11261423233D

 10 10  0  0  0  0  0  0  0  0999 V2000
    0.9831   -1.1613   -1.1697 C   0  0  0  0  0  0  0  0  0  0  0  0
    2.2895   -1.1622   -0.6895 C   0  0  0  0  0  0  0  0  0  0  0  0
    3.3995   -2.2542   -1.4649 Cl  0  0  0  0  0  0  0  0  0  0  0  0
    2.6333   -0.3204    0.3801 C   0  0  0  0  0  0  0  0  0  0  0  0
    4.0341   -0.2106    1.0239 C   0  0  0  0  0  0  0  0  0  0  0  0
    5.2434   -0.4931    0.1085 C   0  0  0  0  0  0  0  0  0  0  0  0
    1.6491    0.4906    0.9384 C   0  0  0  0  0  0  0  0  0  0  0  0
    0.3486    0.4862    0.4522 C   0  0  0  0  0  0  0  0  0  0  0  0
   -0.6137    1.3096    1.0264 O   0  0  0  0  0  0  0  0  0  0  0  0
    0.0129   -0.3418   -0.6087 C   0  0  0  0  0  0  0  0  0  0  0  0
  1  2  1  0  0  0  0
  2  4  2  0  0  0  0
  2  3  1  0  0  0  0
  4  7  1  0  0  0  0
  4  5  1  0  0  0  0
  5  6  1  0  0  0  0
  7  8  2  0  0  0  0
  8 10  1  0  0  0  0
  8  9  1  0  0  0  0
 10  1  2  0  0  0  0
M  END
