6-tert-butyl-2,4-dimethylphenol
 OpenBabel11261423233D

 13 13  0  0  0  0  0  0  0  0999 V2000
    2.8587    1.4407    0.2357 O   0  0  0  0  0  0  0  0  0  0  0  0
    1.4819    1.2442    0.1104 C   0  0  0  0  0  0  0  0  0  0  0  0
    0.6534    2.3612    0.0952 C   0  0  0  0  0  0  0  0  0  0  0  0
   -0.7227    2.2151   -0.0276 C   0  0  0  0  0  0  0  0  0  0  0  0
   -1.2748    0.9457   -0.1359 C   0  0  0  0  0  0  0  0  0  0  0  0
   -2.7595    0.7811   -0.2687 C   0  0  0  0  0  0  0  0  0  0  0  0
    1.2499    3.7324    0.2122 C   0  0  0  0  0  0  0  0  0  0  0  0
    0.9290   -0.0345    0.0016 C   0  0  0  0  0  0  0  0  0  0  0  0
   -0.4502   -0.1722   -0.1210 C   0  0  0  0  0  0  0  0  0  0  0  0
    1.7899   -1.2989    0.0124 C   0  0  0  0  0  0  0  0  0  0  0  0
    0.9086   -2.5577   -0.1229 C   0  0  0  0  0  0  0  0  0  0  0  0
    2.6004   -1.3720    1.3250 C   0  0  0  0  0  0  0  0  0  0  0  0
    2.8078   -1.2516   -1.1481 C   0  0  0  0  0  0  0  0  0  0  0  0
  1  2  1  0  0  0  0
  2  8  2  0  0  0  0
  2  3  1  0  0  0  0
  3  7  1  0  0  0  0
  3  4  2  0  0  0  0
  4  5  1  0  0  0  0
  5  6  1  0  0  0  0
  8 10  1  0  0  0  0
  8  9  1  0  0  0  0
  9  5  2  0  0  0  0
 10 13  1  0  0  0  0
 10 12  1  0  0  0  0
 10 11  1  0  0  0  0
M  END
