4-chloro-3,5-dimethylphenol
 OpenBabel11261423233D

 10 10  0  0  0  0  0  0  0  0999 V2000
    3.2617    1.3264    0.3002 Cl  0  0  0  0  0  0  0  0  0  0  0  0
    1.5587    1.0929    0.1250 C   0  0  0  0  0  0  0  0  0  0  0  0
    0.7052    2.1901    0.1032 C   0  0  0  0  0  0  0  0  0  0  0  0
   -0.6651    2.0024   -0.0377 C   0  0  0  0  0  0  0  0  0  0  0  0
   -1.1815    0.7171   -0.1568 C   0  0  0  0  0  0  0  0  0  0  0  0
   -2.5520    0.5292   -0.2978 O   0  0  0  0  0  0  0  0  0  0  0  0
    1.2632    3.5769    0.2317 C   0  0  0  0  0  0  0  0  0  0  0  0
    1.0419   -0.1922    0.0059 C   0  0  0  0  0  0  0  0  0  0  0  0
   -0.3283   -0.3804   -0.1350 C   0  0  0  0  0  0  0  0  0  0  0  0
    1.9631   -1.3762    0.0295 C   0  0  0  0  0  0  0  0  0  0  0  0
  1  2  1  0  0  0  0
  2  8  2  0  0  0  0
  2  3  1  0  0  0  0
  3  7  1  0  0  0  0
  3  4  2  0  0  0  0
  4  5  1  0  0  0  0
  5  6  1  0  0  0  0
  8 10  1  0  0  0  0
  8  9  1  0  0  0  0
  9  5  2  0  0  0  0
M  END
