4-tert-pentylphenol
 OpenBabel11261423233D

 12 12  0  0  0  0  0  0  0  0999 V2000
    3.3948    0.9479    1.1806 O   0  0  0  0  0  0  0  0  0  0  0  0
    2.0928    0.9678    0.6923 C   0  0  0  0  0  0  0  0  0  0  0  0
    1.3875    2.1647    0.6422 C   0  0  0  0  0  0  0  0  0  0  0  0
    0.0861    2.1845    0.1539 C   0  0  0  0  0  0  0  0  0  0  0  0
   -0.5119    1.0081   -0.2875 C   0  0  0  0  0  0  0  0  0  0  0  0
   -1.9321    1.0240   -0.8140 C   0  0  0  0  0  0  0  0  0  0  0  0
   -2.5334    2.4448   -0.7627 C   0  0  0  0  0  0  0  0  0  0  0  0
   -2.7747    0.0538    0.0343 C   0  0  0  0  0  0  0  0  0  0  0  0
   -1.9674    0.4662   -2.2617 C   0  0  0  0  0  0  0  0  0  0  0  0
   -1.1512    1.3632   -3.2222 C   0  0  0  0  0  0  0  0  0  0  0  0
    1.4964   -0.2093    0.2553 C   0  0  0  0  0  0  0  0  0  0  0  0
    0.1950   -0.1892   -0.2329 C   0  0  0  0  0  0  0  0  0  0  0  0
  1  2  1  0  0  0  0
  2 11  2  0  0  0  0
  2  3  1  0  0  0  0
  3  4  2  0  0  0  0
  4  5  1  0  0  0  0
  5  6  1  0  0  0  0
  6  9  1  0  0  0  0
  6  8  1  0  0  0  0
  6  7  1  0  0  0  0
  9 10  1  0  0  0  0
 11 12  1  0  0  0  0
 12  5  2  0  0  0  0
M  END
