3-phenylphenol
 OpenBabel11261423233D

 13 14  0  0  0  0  0  0  0  0999 V2000
   -2.1922    3.2975    0.0251 O   0  0  0  0  0  0  0  0  0  0  0  0
   -1.1156    2.3191    0.1148 C   0  0  0  0  0  0  0  0  0  0  0  0
   -0.0658    2.4633    1.1379 C   0  0  0  0  0  0  0  0  0  0  0  0
    0.9673    1.4494    1.1601 C   0  0  0  0  0  0  0  0  0  0  0  0
    0.3804    1.3932    0.6090 C   0  0  0  0  0  0  0  0  0  0  0  0
    0.7430    2.2800   -1.2205 C   0  0  0  0  0  0  0  0  0  0  0  0
   -0.8275    2.3056   -2.2747 C   0  0  0  0  0  0  0  0  0  0  0  0
   -2.4374    1.4784   -1.7348 C   0  0  0  0  0  0  0  0  0  0  0  0
   -2.6568    0.4882   -0.1415 C   0  0  0  0  0  0  0  0  0  0  0  0
   -1.2750    0.2752    1.1328 C   0  0  0  0  0  0  0  0  0  0  0  0
    1.3824    0.2371    0.4833 C   0  0  0  0  0  0  0  0  0  0  0  0
    0.7286   -0.4260   -0.6423 C   0  0  0  0  0  0  0  0  0  0  0  0
   -0.4819    0.2040   -1.1436 C   0  0  0  0  0  0  0  0  0  0  0  0
  1  2  1  0  0  0  0
  2  3  1  0  0  0  0
  3  4  2  0  0  0  0
  4 11  1  0  0  0  0
  4  5  1  0  0  0  0
  5  6  1  0  0  0  0
  6  7  2  0  0  0  0
  7  8  1  0  0  0  0
  8  9  2  0  0  0  0
  9 10  1  0  0  0  0
 10  5  2  0  0  0  0
 11 12  2  0  0  0  0
 12 13  1  0  0  0  0
 13  2  2  0  0  0  0
M  END
