2,4,6-trichlorophenol
 OpenBabel11261423233D

 10 10  0  0  0  0  0  0  0  0999 V2000
    3.5847    0.9913    0.5505 Cl  0  0  0  0  0  0  0  0  0  0  0  0
    1.8683    0.9012    0.3759 C   0  0  0  0  0  0  0  0  0  0  0  0
    1.0774    1.9947    0.7102 C   0  0  0  0  0  0  0  0  0  0  0  0
   -0.3039    1.9220    0.5697 C   0  0  0  0  0  0  0  0  0  0  0  0
   -1.2876    3.2799    0.9847 Cl  0  0  0  0  0  0  0  0  0  0  0  0
   -0.8939    0.7561    0.0951 C   0  0  0  0  0  0  0  0  0  0  0  0
   -2.2752    0.6836   -0.0453 O   0  0  0  0  0  0  0  0  0  0  0  0
    1.2783   -0.2649   -0.0987 C   0  0  0  0  0  0  0  0  0  0  0  0
   -0.1030   -0.3372   -0.2391 C   0  0  0  0  0  0  0  0  0  0  0  0
   -0.8372   -1.7854   -0.8287 Cl  0  0  0  0  0  0  0  0  0  0  0  0
  1  2  1  0  0  0  0
  2  8  2  0  0  0  0
  2  3  1  0  0  0  0
  3  4  2  0  0  0  0
  4  6  1  0  0  0  0
  4  5  1  0  0  0  0
  6  7  1  0  0  0  0
  8  9  1  0  0  0  0
  9 10  1  0  0  0  0
  9  6  2  0  0  0  0
M  END
