4-cyclohexylphenol
 OpenBabel11261423233D

 13 14  0  0  0  0  0  0  0  0999 V2000
    1.8782    0.4843    3.9067 O   0  0  0  0  0  0  0  0  0  0  0  0
    1.6867    0.7079    2.5475 C   0  0  0  0  0  0  0  0  0  0  0  0
    2.0636    1.9206    1.9825 C   0  0  0  0  0  0  0  0  0  0  0  0
    1.8718    2.1437    0.6240 C   0  0  0  0  0  0  0  0  0  0  0  0
    1.2984    1.1569   -0.1732 C   0  0  0  0  0  0  0  0  0  0  0  0
    1.0931    1.3890   -1.6788 C   0  0  0  0  0  0  0  0  0  0  0  0
    0.0322    0.4592   -2.3554 C   0  0  0  0  0  0  0  0  0  0  0  0
   -1.3802    1.1523   -2.4652 C   0  0  0  0  0  0  0  0  0  0  0  0
   -1.5918    2.1480   -1.3241 C   0  0  0  0  0  0  0  0  0  0  0  0
   -0.5674    3.3308   -1.4765 C   0  0  0  0  0  0  0  0  0  0  0  0
    0.8170    2.8521   -2.0726 C   0  0  0  0  0  0  0  0  0  0  0  0
    0.9288   -0.0583    0.3946 C   0  0  0  0  0  0  0  0  0  0  0  0
    1.1203   -0.2822    1.7530 C   0  0  0  0  0  0  0  0  0  0  0  0
  1  2  1  0  0  0  0
  2  3  1  0  0  0  0
  3  4  2  0  0  0  0
  4  5  1  0  0  0  0
  5 12  2  0  0  0  0
  5  6  1  0  0  0  0
  6  7  1  0  0  0  0
  7  8  1  0  0  0  0
  8  9  1  0  0  0  0
  9 10  1  0  0  0  0
 10 11  1  0  0  0  0
 11  6  1  0  0  0  0
 12 13  1  0  0  0  0
 13  2  2  0  0  0  0
M  END
