4-chloro-2-isopropyl-5-methylphenol
 OpenBabel11261423233D

 12 12  0  0  0  0  0  0  0  0999 V2000
    3.6130    1.2648   -0.3044 Cl  0  0  0  0  0  0  0  0  0  0  0  0
    1.9324    0.9200   -0.1023 C   0  0  0  0  0  0  0  0  0  0  0  0
    1.1689    1.6732    0.7809 C   0  0  0  0  0  0  0  0  0  0  0  0
   -0.1857    1.4067    0.9578 C   0  0  0  0  0  0  0  0  0  0  0  0
   -0.7779    0.3717    0.2278 C   0  0  0  0  0  0  0  0  0  0  0  0
   -2.1330    0.0695    0.3448 O   0  0  0  0  0  0  0  0  0  0  0  0
   -0.9689    2.2797    1.9469 C   0  0  0  0  0  0  0  0  0  0  0  0
   -0.0290    3.1615    2.7938 C   0  0  0  0  0  0  0  0  0  0  0  0
   -1.9782    1.5125    2.8332 C   0  0  0  0  0  0  0  0  0  0  0  0
    1.3417   -0.1100   -0.8216 C   0  0  0  0  0  0  0  0  0  0  0  0
   -0.0108   -0.3796   -0.6562 C   0  0  0  0  0  0  0  0  0  0  0  0
    2.1607   -0.9270   -1.7771 C   0  0  0  0  0  0  0  0  0  0  0  0
  1  2  1  0  0  0  0
  2 10  2  0  0  0  0
  2  3  1  0  0  0  0
  3  4  2  0  0  0  0
  4  7  1  0  0  0  0
  4  5  1  0  0  0  0
  5  6  1  0  0  0  0
  7  9  1  0  0  0  0
  7  8  1  0  0  0  0
 10 12  1  0  0  0  0
 10 11  1  0  0  0  0
 11  5  2  0  0  0  0
M  END
