2,4,6-tribromophenol
 OpenBabel11261423233D

 10 10  0  0  0  0  0  0  0  0999 V2000
    3.7595    1.0178    0.5192 Br  0  0  0  0  0  0  0  0  0  0  0  0
    1.8692    0.9093    0.3536 C   0  0  0  0  0  0  0  0  0  0  0  0
    1.0781    2.0018    0.6910 C   0  0  0  0  0  0  0  0  0  0  0  0
   -0.3046    1.9221    0.5699 C   0  0  0  0  0  0  0  0  0  0  0  0
   -1.3870    3.4146    1.0306 Br  0  0  0  0  0  0  0  0  0  0  0  0
   -0.8959    0.7505    0.1115 C   0  0  0  0  0  0  0  0  0  0  0  0
   -2.2788    0.6711   -0.0096 O   0  0  0  0  0  0  0  0  0  0  0  0
    1.2779   -0.2626   -0.1048 C   0  0  0  0  0  0  0  0  0  0  0  0
   -0.1049   -0.3418   -0.2258 C   0  0  0  0  0  0  0  0  0  0  0  0
   -0.9145   -1.9429   -0.8522 Br  0  0  0  0  0  0  0  0  0  0  0  0
  1  2  1  0  0  0  0
  2  8  2  0  0  0  0
  2  3  1  0  0  0  0
  3  4  2  0  0  0  0
  4  6  1  0  0  0  0
  4  5  1  0  0  0  0
  6  7  1  0  0  0  0
  8  9  1  0  0  0  0
  9 10  1  0  0  0  0
  9  6  2  0  0  0  0
M  END
