4-heptyloxyphenol
 OpenBabel11261423233D

 15 15  0  0  0  0  0  0  0  0999 V2000
    3.4848    1.0344   -1.4881 O   0  0  0  0  0  0  0  0  0  0  0  0
    2.1177    1.0027   -1.2340 C   0  0  0  0  0  0  0  0  0  0  0  0
    1.4924    2.0560   -0.3458 C   0  0  0  0  0  0  0  0  0  0  0  0
   -0.0001    2.0191   -0.0713 C   0  0  0  0  0  0  0  0  0  0  0  0
   -0.8596    0.9184   -0.6896 C   0  0  0  0  0  0  0  0  0  0  0  0
   -2.1977    0.8042   -0.3549 O   0  0  0  0  0  0  0  0  0  0  0  0
   -2.3995    1.6407    0.7685 C   0  0  0  0  0  0  0  0  0  0  0  0
   -2.4673    0.7338    2.0650 C   0  0  0  0  0  0  0  0  0  0  0  0
   -1.4040   -0.4684    2.2103 C   0  0  0  0  0  0  0  0  0  0  0  0
    0.1456   -0.1076    2.2480 C   0  0  0  0  0  0  0  0  0  0  0  0
    0.9682   -0.2912    0.8231 C   0  0  0  0  0  0  0  0  0  0  0  0
    0.2487    2.2453   -2.7185 C   0  0  0  0  0  0  0  0  0  0  0  0
    0.4317    3.8393   -2.7089 C   0  0  0  0  0  0  0  0  0  0  0  0
    1.2629   -0.0832   -1.8476 C   0  0  0  0  0  0  0  0  0  0  0  0
   -0.2244   -0.1296   -1.5793 C   0  0  0  0  0  0  0  0  0  0  0  0
  1  2  1  0  0  0  0
  2 14  2  0  0  0  0
  2  3  1  0  0  0  0
  3  4  2  0  0  0  0
  4  5  1  0  0  0  0
  5  6  1  0  0  0  0
  6  7  1  0  0  0  0
  7  8  1  0  0  0  0
  8  9  1  0  0  0  0
  9 10  1  0  0  0  0
 10 11  1  0  0  0  0
 11 12  1  0  0  0  0
 12 13  1  0  0  0  0
 14 15  1  0  0  0  0
 15  5  2  0  0  0  0
M  END
