4-(tert)octylphenol
 OpenBabel11261423233D

 15 15  0  0  0  0  0  0  0  0999 V2000
    3.5075    0.7144    1.4445 O   0  0  0  0  0  0  0  0  0  0  0  0
    2.2012    0.7828    0.9726 C   0  0  0  0  0  0  0  0  0  0  0  0
    1.4636    1.9498    1.1358 C   0  0  0  0  0  0  0  0  0  0  0  0
    0.1579    2.0184    0.6640 C   0  0  0  0  0  0  0  0  0  0  0  0
   -0.4112    0.9214    0.0253 C   0  0  0  0  0  0  0  0  0  0  0  0
   -1.8364    0.9909   -0.4839 C   0  0  0  0  0  0  0  0  0  0  0  0
   -2.5035    2.3291   -0.0749 C   0  0  0  0  0  0  0  0  0  0  0  0
   -2.5958   -0.1524    0.2134 C   0  0  0  0  0  0  0  0  0  0  0  0
   -1.9606    0.6286   -2.0513 C   0  0  0  0  0  0  0  0  0  0  0  0
   -1.3123    1.5440   -3.2153 C   0  0  0  0  0  0  0  0  0  0  0  0
   -1.9161    2.9655   -3.2962 C   0  0  0  0  0  0  0  0  0  0  0  0
   -1.6350    0.8497   -4.5497 C   0  0  0  0  0  0  0  0  0  0  0  0
    0.2259    1.6606   -3.1301 C   0  0  0  0  0  0  0  0  0  0  0  0
    1.6328   -0.3163    0.3391 C   0  0  0  0  0  0  0  0  0  0  0  0
    0.3271   -0.2474   -0.1329 C   0  0  0  0  0  0  0  0  0  0  0  0
  1  2  1  0  0  0  0
  2 14  2  0  0  0  0
  2  3  1  0  0  0  0
  3  4  2  0  0  0  0
  4  5  1  0  0  0  0
  5  6  1  0  0  0  0
  6  9  1  0  0  0  0
  6  8  1  0  0  0  0
  6  7  1  0  0  0  0
  9 10  1  0  0  0  0
 10 13  1  0  0  0  0
 10 12  1  0  0  0  0
 10 11  1  0  0  0  0
 14 15  1  0  0  0  0
 15  5  2  0  0  0  0
M  END
