2,3,5-trichlorophenol
 OpenBabel11261423233D

 10 10  0  0  0  0  0  0  0  0999 V2000
    0.8924   -0.5302   -2.4923 O   0  0  0  0  0  0  0  0  0  0  0  0
    1.1173   -0.2985   -1.1398 C   0  0  0  0  0  0  0  0  0  0  0  0
    2.3370   -0.6441   -0.5693 C   0  0  0  0  0  0  0  0  0  0  0  0
    3.5724   -1.3611   -1.5405 Cl  0  0  0  0  0  0  0  0  0  0  0  0
    2.5626   -0.4127    0.7828 C   0  0  0  0  0  0  0  0  0  0  0  0
    4.0786   -0.8426    1.4906 Cl  0  0  0  0  0  0  0  0  0  0  0  0
    1.5685    0.1644    1.5647 C   0  0  0  0  0  0  0  0  0  0  0  0
    0.3487    0.5100    0.9940 C   0  0  0  0  0  0  0  0  0  0  0  0
   -0.8869    1.2272    1.9656 Cl  0  0  0  0  0  0  0  0  0  0  0  0
    0.1229    0.2786   -0.3582 C   0  0  0  0  0  0  0  0  0  0  0  0
  1  2  1  0  0  0  0
  2  3  1  0  0  0  0
  3  5  2  0  0  0  0
  3  4  1  0  0  0  0
  5  7  1  0  0  0  0
  5  6  1  0  0  0  0
  7  8  2  0  0  0  0
  8 10  1  0  0  0  0
  8  9  1  0  0  0  0
 10  2  2  0  0  0  0
M  END
