./000050-00-0.hin
 OpenBabel09241315583D

  4  3  0  0  0  0  0  0  0  0999 V2000
  -19.4291   -0.8333   22.6977 O   0  0  0  0  0  0  0  0  0  0  0  0
  -19.4291    0.3940   22.6977 C   0  0  0  0  0  0  0  0  0  0  0  0
  -18.4896    0.9861   22.6977 H   0  0  0  0  0  0  0  0  0  0  0  0
  -20.3685    0.9861   22.6977 H   0  0  0  0  0  0  0  0  0  0  0  0
  1  2  2  0  0  0  0
  2  3  1  0  0  0  0
  2  4  1  0  0  0  0
M  END
