./000064-17-5.hin
 OpenBabel09241315583D

  9  8  0  0  0  0  0  0  0  0999 V2000
   -2.6943    3.2740    0.0000 C   0  0  0  0  0  0  0  0  0  0  0  0
   -2.6808    4.7855    0.0000 C   0  0  0  0  0  0  0  0  0  0  0  0
   -4.0320    5.2207   -0.0000 O   0  0  0  0  0  0  0  0  0  0  0  0
   -1.6463    2.8921   -0.0000 H   0  0  0  0  0  0  0  0  0  0  0  0
   -3.2248    2.8913    0.9043 H   0  0  0  0  0  0  0  0  0  0  0  0
   -3.2248    2.8913   -0.9043 H   0  0  0  0  0  0  0  0  0  0  0  0
   -2.1555    5.1777    0.9127 H   0  0  0  0  0  0  0  0  0  0  0  0
   -2.1555    5.1777   -0.9127 H   0  0  0  0  0  0  0  0  0  0  0  0
   -4.0117    6.1842   -0.0000 H   0  0  0  0  0  0  0  0  0  0  0  0
  1  2  1  0  0  0  0
  1  4  1  0  0  0  0
  1  5  1  0  0  0  0
  1  6  1  0  0  0  0
  2  3  1  0  0  0  0
  2  7  1  0  0  0  0
  2  8  1  0  0  0  0
  3  9  1  0  0  0  0
M  END
