./000074-83-9.hin
 OpenBabel09241315583D

  5  4  0  0  0  0  0  0  0  0999 V2000
   -0.5237    1.9631    0.0000 Br  0  0  0  0  0  0  0  0  0  0  0  0
   -0.5237    3.8681   -0.0000 C   0  0  0  0  0  0  0  0  0  0  0  0
    0.5272    4.2252    0.0000 H   0  0  0  0  0  0  0  0  0  0  0  0
   -1.0491    4.2252   -0.9101 H   0  0  0  0  0  0  0  0  0  0  0  0
   -1.0491    4.2252    0.9101 H   0  0  0  0  0  0  0  0  0  0  0  0
  1  2  1  0  0  0  0
  2  3  1  0  0  0  0
  2  4  1  0  0  0  0
  2  5  1  0  0  0  0
M  END
