./000074-84-0.hin
 OpenBabel09241315583D

  8  7  0  0  0  0  0  0  0  0999 V2000
   -0.5141   -0.3303    0.0000 C   0  0  0  0  0  0  0  0  0  0  0  0
   -0.5142    1.1700    0.0000 C   0  0  0  0  0  0  0  0  0  0  0  0
    0.5307   -0.7255   -0.0000 H   0  0  0  0  0  0  0  0  0  0  0  0
   -1.0366   -0.7255    0.9049 H   0  0  0  0  0  0  0  0  0  0  0  0
   -1.0366   -0.7255   -0.9049 H   0  0  0  0  0  0  0  0  0  0  0  0
   -1.5590    1.5652   -0.0000 H   0  0  0  0  0  0  0  0  0  0  0  0
    0.0083    1.5652    0.9049 H   0  0  0  0  0  0  0  0  0  0  0  0
    0.0083    1.5652   -0.9049 H   0  0  0  0  0  0  0  0  0  0  0  0
  1  2  1  0  0  0  0
  1  3  1  0  0  0  0
  1  4  1  0  0  0  0
  1  5  1  0  0  0  0
  2  6  1  0  0  0  0
  2  7  1  0  0  0  0
  2  8  1  0  0  0  0
M  END
