./000074-86-2.hin
 OpenBabel09241315583D

  4  3  0  0  0  0  0  0  0  0999 V2000
   -4.7435    2.4178   -0.0000 C   0  0  0  0  0  0  0  0  0  0  0  0
   -4.7435    3.6132    0.0000 C   0  0  0  0  0  0  0  0  0  0  0  0
   -4.7435    1.3572   -0.0000 H   0  0  0  0  0  0  0  0  0  0  0  0
   -4.7435    4.6738    0.0000 H   0  0  0  0  0  0  0  0  0  0  0  0
  1  2  3  0  0  0  0
  1  3  1  0  0  0  0
  2  4  1  0  0  0  0
M  END
