./000074-90-8.hin
 OpenBabel09241315583D

  3  2  0  0  0  0  0  0  0  0999 V2000
   -4.7880   10.5830    9.9944 C   0  0  0  0  0  0  0  0  0  0  0  0
   -4.7880   11.7431    9.9944 N   0  0  0  0  0  0  0  0  0  0  0  0
   -4.7880    9.5140    9.9944 H   0  0  0  0  0  0  0  0  0  0  0  0
  1  2  3  0  0  0  0
  1  3  1  0  0  0  0
M  END
