./000074-96-4.hin
 OpenBabel09241315583D

  8  7  0  0  0  0  0  0  0  0999 V2000
   -0.6110   -0.6927    0.0000 C   0  0  0  0  0  0  0  0  0  0  0  0
   -2.4009    1.5601    0.0000 Br  0  0  0  0  0  0  0  0  0  0  0  0
   -0.6251    0.8070   -0.0000 C   0  0  0  0  0  0  0  0  0  0  0  0
    0.4483   -1.0531    0.0000 H   0  0  0  0  0  0  0  0  0  0  0  0
   -1.1197   -1.1031    0.9061 H   0  0  0  0  0  0  0  0  0  0  0  0
   -1.1197   -1.1031   -0.9061 H   0  0  0  0  0  0  0  0  0  0  0  0
   -0.1186    1.2092   -0.9084 H   0  0  0  0  0  0  0  0  0  0  0  0
   -0.1186    1.2092    0.9084 H   0  0  0  0  0  0  0  0  0  0  0  0
  1  3  1  0  0  0  0
  1  4  1  0  0  0  0
  1  5  1  0  0  0  0
  1  6  1  0  0  0  0
  2  3  1  0  0  0  0
  3  7  1  0  0  0  0
  3  8  1  0  0  0  0
M  END
