./000075-04-7.hin
 OpenBabel09241315583D

 10  9  0  0  0  0  0  0  0  0999 V2000
   -2.0714    1.6749   -0.1615 C   0  0  0  0  0  0  0  0  0  0  0  0
   -2.0179    3.1115   -0.2543 N   0  0  0  0  0  0  0  0  0  0  0  0
   -1.0106    1.2931   -0.1817 H   0  0  0  0  0  0  0  0  0  0  0  0
   -2.7743    1.0918    1.0559 C   0  0  0  0  0  0  0  0  0  0  0  0
   -2.5844    1.2931   -1.0902 H   0  0  0  0  0  0  0  0  0  0  0  0
   -2.9394    3.5020   -0.2837 H   0  0  0  0  0  0  0  0  0  0  0  0
   -1.5315    3.5020    0.5291 H   0  0  0  0  0  0  0  0  0  0  0  0
   -2.7454   -0.0227    1.0059 H   0  0  0  0  0  0  0  0  0  0  0  0
   -2.2741    1.4148    2.0004 H   0  0  0  0  0  0  0  0  0  0  0  0
   -3.8423    1.4148    1.0950 H   0  0  0  0  0  0  0  0  0  0  0  0
  1  2  1  0  0  0  0
  1  3  1  0  0  0  0
  1  4  1  0  0  0  0
  1  5  1  0  0  0  0
  2  6  1  0  0  0  0
  2  7  1  0  0  0  0
  4  8  1  0  0  0  0
  4  9  1  0  0  0  0
  4 10  1  0  0  0  0
M  END
