./000075-09-2.hin
 OpenBabel09241315583D

  5  4  0  0  0  0  0  0  0  0999 V2000
   -0.4253    0.6755    0.2074 C   0  0  0  0  0  0  0  0  0  0  0  0
   -0.3987    2.4160    0.2534 Cl  0  0  0  0  0  0  0  0  0  0  0  0
    0.6282    0.3166    0.1853 H   0  0  0  0  0  0  0  0  0  0  0  0
   -0.9712    0.3166    1.1087 H   0  0  0  0  0  0  0  0  0  0  0  0
   -1.2369    0.0452   -1.1983 Cl  0  0  0  0  0  0  0  0  0  0  0  0
  1  2  1  0  0  0  0
  1  3  1  0  0  0  0
  1  4  1  0  0  0  0
  1  5  1  0  0  0  0
M  END
