./000075-10-5.hin
 OpenBabel09241315583D

  5  4  0  0  0  0  0  0  0  0999 V2000
   -1.1177   -0.6334    0.0000 C   0  0  0  0  0  0  0  0  0  0  0  0
   -1.0513    0.7375   -0.0000 F   0  0  0  0  0  0  0  0  0  0  0  0
    0.1969   -1.0278   -0.0000 F   0  0  0  0  0  0  0  0  0  0  0  0
   -1.6395   -1.0024    0.9290 H   0  0  0  0  0  0  0  0  0  0  0  0
   -1.6395   -1.0024   -0.9290 H   0  0  0  0  0  0  0  0  0  0  0  0
  1  2  1  0  0  0  0
  1  3  1  0  0  0  0
  1  4  1  0  0  0  0
  1  5  1  0  0  0  0
M  END
