./000075-21-8.hin
 OpenBabel09241315583D

  7  7  0  0  0  0  0  0  0  0999 V2000
   -0.7252   -0.4191    0.4951 C   0  0  0  0  0  0  0  0  0  0  0  0
   -0.7252    1.0648    0.4951 C   0  0  0  0  0  0  0  0  0  0  0  0
   -1.5415   -0.9848    0.9796 H   0  0  0  0  0  0  0  0  0  0  0  0
    0.2166   -0.9848    0.3765 H   0  0  0  0  0  0  0  0  0  0  0  0
    0.2166    1.6305    0.3765 H   0  0  0  0  0  0  0  0  0  0  0  0
   -1.1240    0.3229   -0.6675 O   0  0  0  0  0  0  0  0  0  0  0  0
   -1.5415    1.6305    0.9796 H   0  0  0  0  0  0  0  0  0  0  0  0
  1  2  1  0  0  0  0
  1  3  1  0  0  0  0
  1  4  1  0  0  0  0
  1  6  1  0  0  0  0
  2  5  1  0  0  0  0
  2  6  1  0  0  0  0
  2  7  1  0  0  0  0
M  END
