./000075-29-6.hin
 OpenBabel09241315583D

 11 10  0  0  0  0  0  0  0  0999 V2000
   -2.3162  -14.5253   23.8920 Cl  0  0  0  0  0  0  0  0  0  0  0  0
   -0.8516  -12.2637   23.8538 C   0  0  0  0  0  0  0  0  0  0  0  0
   -2.2796  -12.7511   23.8286 C   0  0  0  0  0  0  0  0  0  0  0  0
   -0.8405  -11.1460   23.8657 H   0  0  0  0  0  0  0  0  0  0  0  0
   -0.3215  -12.6349   24.7640 H   0  0  0  0  0  0  0  0  0  0  0  0
   -2.8165  -12.4282   24.7585 H   0  0  0  0  0  0  0  0  0  0  0  0
   -3.0154  -12.2637   22.6045 C   0  0  0  0  0  0  0  0  0  0  0  0
   -0.2946  -12.6141   22.9514 H   0  0  0  0  0  0  0  0  0  0  0  0
   -4.0687  -12.6349   22.6005 H   0  0  0  0  0  0  0  0  0  0  0  0
   -3.0313  -11.1460   22.6009 H   0  0  0  0  0  0  0  0  0  0  0  0
   -2.5124  -12.6141   21.6710 H   0  0  0  0  0  0  0  0  0  0  0  0
  1  3  1  0  0  0  0
  2  3  1  0  0  0  0
  2  4  1  0  0  0  0
  2  5  1  0  0  0  0
  2  8  1  0  0  0  0
  3  6  1  0  0  0  0
  3  7  1  0  0  0  0
  7  9  1  0  0  0  0
  7 10  1  0  0  0  0
  7 11  1  0  0  0  0
M  END
