./000075-43-4.hin
 OpenBabel09241315583D

  5  4  0  0  0  0  0  0  0  0999 V2000
   -0.6540    0.9620   -0.1284 C   0  0  0  0  0  0  0  0  0  0  0  0
   -0.6042    2.7398   -0.1608 Cl  0  0  0  0  0  0  0  0  0  0  0  0
    0.4109    0.6088   -0.1664 H   0  0  0  0  0  0  0  0  0  0  0  0
   -1.4412    0.3724   -1.6106 Cl  0  0  0  0  0  0  0  0  0  0  0  0
   -1.2707    0.4881    1.0015 F   0  0  0  0  0  0  0  0  0  0  0  0
  1  2  1  0  0  0  0
  1  3  1  0  0  0  0
  1  4  1  0  0  0  0
  1  5  1  0  0  0  0
M  END
