./000075-46-7.hin
 OpenBabel09241315583D

  5  4  0  0  0  0  0  0  0  0999 V2000
    0.1064   -0.4836   -0.2487 F   0  0  0  0  0  0  0  0  0  0  0  0
   -0.5230    1.2965    0.8414 F   0  0  0  0  0  0  0  0  0  0  0  0
    1.3651    1.2965   -0.2487 F   0  0  0  0  0  0  0  0  0  0  0  0
    0.0641    0.8813   -0.3219 C   0  0  0  0  0  0  0  0  0  0  0  0
   -0.4684    1.2579   -1.2442 H   0  0  0  0  0  0  0  0  0  0  0  0
  1  4  1  0  0  0  0
  2  4  1  0  0  0  0
  3  4  1  0  0  0  0
  4  5  1  0  0  0  0
M  END
