./000075-50-3.hin
 OpenBabel09241315583D

 13 12  0  0  0  0  0  0  0  0999 V2000
    0.7129    5.2781   -1.6892 C   0  0  0  0  0  0  0  0  0  0  0  0
   -0.3593    4.9515   -1.7236 H   0  0  0  0  0  0  0  0  0  0  0  0
    1.2136    4.7657   -0.8219 H   0  0  0  0  0  0  0  0  0  0  0  0
    0.7610    6.7200   -1.6058 N   0  0  0  0  0  0  0  0  0  0  0  0
    2.1044    7.2460   -1.6892 C   0  0  0  0  0  0  0  0  0  0  0  0
    2.0549    8.3658   -1.7236 H   0  0  0  0  0  0  0  0  0  0  0  0
    2.5811    6.8775   -2.6350 H   0  0  0  0  0  0  0  0  0  0  0  0
    2.7544    6.9447   -0.8219 H   0  0  0  0  0  0  0  0  0  0  0  0
    0.0171    7.2460   -0.4842 C   0  0  0  0  0  0  0  0  0  0  0  0
    0.0121    8.3658   -0.5441 H   0  0  0  0  0  0  0  0  0  0  0  0
    0.4433    6.9447    0.5124 H   0  0  0  0  0  0  0  0  0  0  0  0
   -1.0403    6.8775   -0.5441 H   0  0  0  0  0  0  0  0  0  0  0  0
    1.2192    4.9515   -2.6350 H   0  0  0  0  0  0  0  0  0  0  0  0
  1  2  1  0  0  0  0
  1  3  1  0  0  0  0
  1  4  1  0  0  0  0
  1 13  1  0  0  0  0
  4  5  1  0  0  0  0
  4  9  1  0  0  0  0
  5  6  1  0  0  0  0
  5  7  1  0  0  0  0
  5  8  1  0  0  0  0
  9 10  1  0  0  0  0
  9 11  1  0  0  0  0
  9 12  1  0  0  0  0
M  END
