./000075-65-0.hin
 OpenBabel09241315583D

 15 14  0  0  0  0  0  0  0  0999 V2000
   -0.8188    0.0984    0.4954 C   0  0  0  0  0  0  0  0  0  0  0  0
   -1.5032   -0.3124    1.6809 O   0  0  0  0  0  0  0  0  0  0  0  0
   -0.8340    1.6218    0.5218 C   0  0  0  0  0  0  0  0  0  0  0  0
    0.6129   -0.4233    0.5157 C   0  0  0  0  0  0  0  0  0  0  0  0
   -1.5522   -0.4233   -0.7343 C   0  0  0  0  0  0  0  0  0  0  0  0
   -1.5037   -1.2762    1.6818 H   0  0  0  0  0  0  0  0  0  0  0  0
   -0.3126    2.0159   -0.3813 H   0  0  0  0  0  0  0  0  0  0  0  0
   -1.8865    1.9917    0.5329 H   0  0  0  0  0  0  0  0  0  0  0  0
   -0.3174    1.9917    1.4389 H   0  0  0  0  0  0  0  0  0  0  0  0
    1.1720   -0.0387   -0.3690 H   0  0  0  0  0  0  0  0  0  0  0  0
    1.1271   -0.0857    1.4469 H   0  0  0  0  0  0  0  0  0  0  0  0
    0.6199   -1.5391    0.4893 H   0  0  0  0  0  0  0  0  0  0  0  0
   -1.0655   -0.0387   -1.6608 H   0  0  0  0  0  0  0  0  0  0  0  0
   -1.5328   -1.5391   -0.7536 H   0  0  0  0  0  0  0  0  0  0  0  0
   -2.6157   -0.0857   -0.7140 H   0  0  0  0  0  0  0  0  0  0  0  0
  1  2  1  0  0  0  0
  1  3  1  0  0  0  0
  1  4  1  0  0  0  0
  1  5  1  0  0  0  0
  2  6  1  0  0  0  0
  3  7  1  0  0  0  0
  3  8  1  0  0  0  0
  3  9  1  0  0  0  0
  4 10  1  0  0  0  0
  4 11  1  0  0  0  0
  4 12  1  0  0  0  0
  5 13  1  0  0  0  0
  5 14  1  0  0  0  0
  5 15  1  0  0  0  0
M  END
