./000075-66-1.hin
 OpenBabel09241315583D

 15 14  0  0  0  0  0  0  0  0999 V2000
   -8.5968    6.4016   -8.4331 C   0  0  0  0  0  0  0  0  0  0  0  0
   -7.1634    8.4398   -8.4485 C   0  0  0  0  0  0  0  0  0  0  0  0
   -6.6369    8.0737   -9.3634 H   0  0  0  0  0  0  0  0  0  0  0  0
   -6.6009    8.0880   -7.5492 H   0  0  0  0  0  0  0  0  0  0  0  0
   -8.5818    7.9133   -8.4076 C   0  0  0  0  0  0  0  0  0  0  0  0
   -9.3142    8.4309   -7.1904 C   0  0  0  0  0  0  0  0  0  0  0  0
   -9.3329    8.5664   -9.9077 S   0  0  0  0  0  0  0  0  0  0  0  0
   -9.6457    6.0182   -8.4207 H   0  0  0  0  0  0  0  0  0  0  0  0
   -8.0866    6.0207   -9.3508 H   0  0  0  0  0  0  0  0  0  0  0  0
   -8.0642    5.9974   -7.5370 H   0  0  0  0  0  0  0  0  0  0  0  0
   -7.1613    9.5570   -8.4550 H   0  0  0  0  0  0  0  0  0  0  0  0
  -10.5451    8.0598   -9.7804 H   0  0  0  0  0  0  0  0  0  0  0  0
  -10.3655    8.0541   -7.1739 H   0  0  0  0  0  0  0  0  0  0  0  0
   -8.8023    8.0850   -6.2586 H   0  0  0  0  0  0  0  0  0  0  0  0
   -9.3335    9.5477   -7.1909 H   0  0  0  0  0  0  0  0  0  0  0  0
  1  5  1  0  0  0  0
  1  8  1  0  0  0  0
  1  9  1  0  0  0  0
  1 10  1  0  0  0  0
  2  3  1  0  0  0  0
  2  4  1  0  0  0  0
  2  5  1  0  0  0  0
  2 11  1  0  0  0  0
  5  6  1  0  0  0  0
  5  7  1  0  0  0  0
  6 13  1  0  0  0  0
  6 14  1  0  0  0  0
  6 15  1  0  0  0  0
  7 12  1  0  0  0  0
M  END
