./000075-88-7.hin
 OpenBabel09241315583D

  8  7  0  0  0  0  0  0  0  0999 V2000
   -1.0395    1.1675   -0.0000 Cl  0  0  0  0  0  0  0  0  0  0  0  0
    1.2601    3.0611   -1.0888 F   0  0  0  0  0  0  0  0  0  0  0  0
    1.2599    3.0613    1.0891 F   0  0  0  0  0  0  0  0  0  0  0  0
    0.5568    4.8036   -0.0001 F   0  0  0  0  0  0  0  0  0  0  0  0
    0.5155    3.4302    0.0000 C   0  0  0  0  0  0  0  0  0  0  0  0
   -0.9451    2.8984   -0.0000 C   0  0  0  0  0  0  0  0  0  0  0  0
   -1.4545    3.2772    0.9185 H   0  0  0  0  0  0  0  0  0  0  0  0
   -1.4544    3.2772   -0.9186 H   0  0  0  0  0  0  0  0  0  0  0  0
  1  6  1  0  0  0  0
  2  5  1  0  0  0  0
  3  5  1  0  0  0  0
  4  5  1  0  0  0  0
  5  6  1  0  0  0  0
  6  7  1  0  0  0  0
  6  8  1  0  0  0  0
M  END
