./000075-97-8.hin
 OpenBabel09241315583D

 19 18  0  0  0  0  0  0  0  0999 V2000
   -2.8093  -12.2043   23.7306 C   0  0  0  0  0  0  0  0  0  0  0  0
   -2.8477  -10.6815   23.7306 C   0  0  0  0  0  0  0  0  0  0  0  0
   -1.3627  -12.6801   23.7306 C   0  0  0  0  0  0  0  0  0  0  0  0
   -1.1316  -14.1583   23.7306 C   0  0  0  0  0  0  0  0  0  0  0  0
   -0.4180  -11.8843   23.7306 O   0  0  0  0  0  0  0  0  0  0  0  0
   -0.0366  -14.3822   23.7306 H   0  0  0  0  0  0  0  0  0  0  0  0
   -3.5143  -12.7216   24.9762 C   0  0  0  0  0  0  0  0  0  0  0  0
   -3.5143  -12.7216   22.4851 C   0  0  0  0  0  0  0  0  0  0  0  0
   -1.5931  -14.6166   24.6389 H   0  0  0  0  0  0  0  0  0  0  0  0
   -1.5931  -14.6166   22.8224 H   0  0  0  0  0  0  0  0  0  0  0  0
   -3.9041  -10.3229   23.7306 H   0  0  0  0  0  0  0  0  0  0  0  0
   -2.3273  -10.2855   24.6353 H   0  0  0  0  0  0  0  0  0  0  0  0
   -2.3273  -10.2855   22.8259 H   0  0  0  0  0  0  0  0  0  0  0  0
   -3.6015  -13.8342   22.5114 H   0  0  0  0  0  0  0  0  0  0  0  0
   -4.5424  -12.2891   22.4281 H   0  0  0  0  0  0  0  0  0  0  0  0
   -2.9518  -12.4243   21.5680 H   0  0  0  0  0  0  0  0  0  0  0  0
   -3.6015  -13.8342   24.9499 H   0  0  0  0  0  0  0  0  0  0  0  0
   -2.9517  -12.4243   25.8933 H   0  0  0  0  0  0  0  0  0  0  0  0
   -4.5424  -12.2890   25.0332 H   0  0  0  0  0  0  0  0  0  0  0  0
  1  2  1  0  0  0  0
  1  3  1  0  0  0  0
  1  7  1  0  0  0  0
  1  8  1  0  0  0  0
  2 11  1  0  0  0  0
  2 12  1  0  0  0  0
  2 13  1  0  0  0  0
  3  4  1  0  0  0  0
  3  5  2  0  0  0  0
  4  6  1  0  0  0  0
  4  9  1  0  0  0  0
  4 10  1  0  0  0  0
  7 17  1  0  0  0  0
  7 18  1  0  0  0  0
  7 19  1  0  0  0  0
  8 14  1  0  0  0  0
  8 15  1  0  0  0  0
  8 16  1  0  0  0  0
M  END
