./000078-78-4.hin
 OpenBabel09241315583D

 17 16  0  0  0  0  0  0  0  0999 V2000
   -2.7590   -1.5583    0.3914 C   0  0  0  0  0  0  0  0  0  0  0  0
   -2.8332   -0.0730    0.1494 C   0  0  0  0  0  0  0  0  0  0  0  0
   -4.2613    0.4537    0.1756 C   0  0  0  0  0  0  0  0  0  0  0  0
   -4.2594    1.9608    0.3328 C   0  0  0  0  0  0  0  0  0  0  0  0
   -5.0177    0.0612   -1.0761 C   0  0  0  0  0  0  0  0  0  0  0  0
   -1.6940   -1.8953    0.3940 H   0  0  0  0  0  0  0  0  0  0  0  0
   -3.2139   -1.8219    1.3769 H   0  0  0  0  0  0  0  0  0  0  0  0
   -3.3025   -2.1204   -0.4061 H   0  0  0  0  0  0  0  0  0  0  0  0
   -2.2352    0.4571    0.9382 H   0  0  0  0  0  0  0  0  0  0  0  0
   -2.3661    0.1730   -0.8405 H   0  0  0  0  0  0  0  0  0  0  0  0
   -4.7883    0.0049    1.0652 H   0  0  0  0  0  0  0  0  0  0  0  0
   -5.3055    2.3509    0.3414 H   0  0  0  0  0  0  0  0  0  0  0  0
   -3.7639    2.2536    1.2896 H   0  0  0  0  0  0  0  0  0  0  0  0
   -3.7095    2.4414   -0.5118 H   0  0  0  0  0  0  0  0  0  0  0  0
   -6.0658    0.4438   -1.0301 H   0  0  0  0  0  0  0  0  0  0  0  0
   -4.5256    0.4887   -1.9828 H   0  0  0  0  0  0  0  0  0  0  0  0
   -5.0507   -1.0497   -1.1821 H   0  0  0  0  0  0  0  0  0  0  0  0
  1  2  1  0  0  0  0
  1  6  1  0  0  0  0
  1  7  1  0  0  0  0
  1  8  1  0  0  0  0
  2  3  1  0  0  0  0
  2  9  1  0  0  0  0
  2 10  1  0  0  0  0
  3  4  1  0  0  0  0
  3  5  1  0  0  0  0
  3 11  1  0  0  0  0
  4 12  1  0  0  0  0
  4 13  1  0  0  0  0
  4 14  1  0  0  0  0
  5 15  1  0  0  0  0
  5 16  1  0  0  0  0
  5 17  1  0  0  0  0
M  END
