./000078-85-3.hin
 OpenBabel09241315583D

 11 10  0  0  0  0  0  0  0  0999 V2000
   -2.5924    2.9030   -3.5155 C   0  0  0  0  0  0  0  0  0  0  0  0
   -2.5480    4.2291   -3.6884 C   0  0  0  0  0  0  0  0  0  0  0  0
   -1.3467    2.1328   -3.3177 C   0  0  0  0  0  0  0  0  0  0  0  0
   -3.4541    4.8308   -3.8409 H   0  0  0  0  0  0  0  0  0  0  0  0
   -1.6055    4.7938   -3.6892 H   0  0  0  0  0  0  0  0  0  0  0  0
   -1.3134    0.9068   -3.1991 O   0  0  0  0  0  0  0  0  0  0  0  0
   -3.8555    2.1291   -3.5079 C   0  0  0  0  0  0  0  0  0  0  0  0
   -0.4134    2.7416   -3.2826 H   0  0  0  0  0  0  0  0  0  0  0  0
   -3.7891    1.2844   -4.2389 H   0  0  0  0  0  0  0  0  0  0  0  0
   -4.0244    1.6895   -2.4926 H   0  0  0  0  0  0  0  0  0  0  0  0
   -4.7311    2.7697   -3.7725 H   0  0  0  0  0  0  0  0  0  0  0  0
  1  2  2  0  0  0  0
  1  3  1  0  0  0  0
  1  7  1  0  0  0  0
  2  4  1  0  0  0  0
  2  5  1  0  0  0  0
  3  6  2  0  0  0  0
  3  8  1  0  0  0  0
  7  9  1  0  0  0  0
  7 10  1  0  0  0  0
  7 11  1  0  0  0  0
M  END
