./000078-87-5.hin
 OpenBabel09241315583D

 11 10  0  0  1  0  0  0  0  0999 V2000
   -1.4901    3.7400   -2.3036 C   0  0  0  0  0  0  0  0  0  0  0  0
   -0.8983    3.0622   -3.8103 Cl  0  0  0  0  0  0  0  0  0  0  0  0
   -2.5336    3.3614   -2.1771 H   0  0  0  0  0  0  0  0  0  0  0  0
   -0.8401    3.3376   -1.4895 H   0  0  0  0  0  0  0  0  0  0  0  0
   -1.4575    5.2553   -2.3299 C   0  0  1  0  0  0  0  0  0  0  0  0
   -2.4112    5.8551   -0.9598 Cl  0  0  0  0  0  0  0  0  0  0  0  0
   -0.0534    5.8030   -2.2613 C   0  0  0  0  0  0  0  0  0  0  0  0
   -1.9855    5.6436   -3.2402 H   0  0  0  0  0  0  0  0  0  0  0  0
   -0.0680    6.9198   -2.2728 H   0  0  0  0  0  0  0  0  0  0  0  0
    0.4640    5.4645   -1.3311 H   0  0  0  0  0  0  0  0  0  0  0  0
    0.5312    5.4448   -3.1446 H   0  0  0  0  0  0  0  0  0  0  0  0
  1  2  1  0  0  0  0
  1  3  1  0  0  0  0
  1  4  1  0  0  0  0
  1  5  1  0  0  0  0
  5  6  1  0  0  0  0
  5  7  1  0  0  0  0
  5  8  1  6  0  0  0
  7  9  1  0  0  0  0
  7 10  1  0  0  0  0
  7 11  1  0  0  0  0
M  END
