./000079-00-5.hin
 OpenBabel09241315583D

  8  7  0  0  0  0  0  0  0  0999 V2000
   -1.9926   -1.3633    0.2904 C   0  0  0  0  0  0  0  0  0  0  0  0
   -1.9971    0.1521    0.2946 C   0  0  0  0  0  0  0  0  0  0  0  0
   -3.6116   -2.0033    0.1278 Cl  0  0  0  0  0  0  0  0  0  0  0  0
   -1.4059   -1.7450   -0.5822 H   0  0  0  0  0  0  0  0  0  0  0  0
   -0.3459    0.7375    0.1374 Cl  0  0  0  0  0  0  0  0  0  0  0  0
   -2.7465    0.7908    1.7439 Cl  0  0  0  0  0  0  0  0  0  0  0  0
   -1.5667   -1.7729    1.2390 H   0  0  0  0  0  0  0  0  0  0  0  0
   -2.5669    0.5720   -0.5718 H   0  0  0  0  0  0  0  0  0  0  0  0
  1  2  1  0  0  0  0
  1  3  1  0  0  0  0
  1  4  1  0  0  0  0
  1  7  1  0  0  0  0
  2  5  1  0  0  0  0
  2  6  1  0  0  0  0
  2  8  1  0  0  0  0
M  END
