./000079-09-4.hin
 OpenBabel09241315583D

 11 10  0  0  0  0  0  0  0  0999 V2000
    0.0947   -0.5597    0.0000 C   0  0  0  0  0  0  0  0  0  0  0  0
    0.0071    0.9315    0.0000 C   0  0  0  0  0  0  0  0  0  0  0  0
   -1.4036    1.4570   -0.0000 C   0  0  0  0  0  0  0  0  0  0  0  0
    1.1115   -1.2614   -0.0000 O   0  0  0  0  0  0  0  0  0  0  0  0
   -1.0963   -1.2228    0.0000 O   0  0  0  0  0  0  0  0  0  0  0  0
    0.5619    1.2973    0.9065 H   0  0  0  0  0  0  0  0  0  0  0  0
    0.5619    1.2974   -0.9065 H   0  0  0  0  0  0  0  0  0  0  0  0
   -1.3929    2.5735    0.0000 H   0  0  0  0  0  0  0  0  0  0  0  0
   -1.9556    1.1006   -0.9033 H   0  0  0  0  0  0  0  0  0  0  0  0
   -1.9556    1.1006    0.9033 H   0  0  0  0  0  0  0  0  0  0  0  0
   -0.9338   -2.1808   -0.0000 H   0  0  0  0  0  0  0  0  0  0  0  0
  1  2  1  0  0  0  0
  1  4  2  0  0  0  0
  1  5  1  0  0  0  0
  2  3  1  0  0  0  0
  2  6  1  0  0  0  0
  2  7  1  0  0  0  0
  3  8  1  0  0  0  0
  3  9  1  0  0  0  0
  3 10  1  0  0  0  0
  5 11  1  0  0  0  0
M  END
