./000079-20-9.hin
 OpenBabel09241315583D

 11 10  0  0  0  0  0  0  0  0999 V2000
   -0.7279    2.8717   30.2661 C   0  0  0  0  0  0  0  0  0  0  0  0
   -0.9231    4.3468   30.2661 C   0  0  0  0  0  0  0  0  0  0  0  0
   -2.0088    4.6075   30.2661 H   0  0  0  0  0  0  0  0  0  0  0  0
   -0.4365    4.7759   29.3560 H   0  0  0  0  0  0  0  0  0  0  0  0
    0.3255    2.2316   30.2661 O   0  0  0  0  0  0  0  0  0  0  0  0
   -1.9057    2.1732   30.2661 O   0  0  0  0  0  0  0  0  0  0  0  0
   -1.8101    0.7489   30.2661 C   0  0  0  0  0  0  0  0  0  0  0  0
   -2.8755    0.4112   30.2661 H   0  0  0  0  0  0  0  0  0  0  0  0
   -1.2707    0.4036   29.3515 H   0  0  0  0  0  0  0  0  0  0  0  0
   -1.2707    0.4036   31.1806 H   0  0  0  0  0  0  0  0  0  0  0  0
   -0.4365    4.7759   31.1762 H   0  0  0  0  0  0  0  0  0  0  0  0
  1  2  1  0  0  0  0
  1  5  2  0  0  0  0
  1  6  1  0  0  0  0
  2  3  1  0  0  0  0
  2  4  1  0  0  0  0
  2 11  1  0  0  0  0
  6  7  1  0  0  0  0
  7  8  1  0  0  0  0
  7  9  1  0  0  0  0
  7 10  1  0  0  0  0
M  END
