./000079-24-3.hin
  ACCLDraw05121623503D

 10  9  0  0  0  0  0  0  0  0999 V2000
   12.3545  -15.5188    0.0000 O   0  5  0  0  0  0  0  0  0  0  0  0
   13.3188  -12.0185    0.0000 C   0  0  3  0  0  0  0  0  0  0  0  0
   13.5421  -13.5106    0.0000 C   0  0  3  0  0  0  0  0  0  0  0  0
   12.2592  -14.3211    0.0000 N   0  3  0  0  0  0  0  0  0  0  0  0
   11.1995  -13.7597    0.0000 O   0  0  0  0  0  0  0  0  0  0  0  0
   14.3149  -11.5124    0.0000 H   0  0  0  0  0  0  0  0  0  0  0  0
   12.7468  -11.6970   -0.9043 H   0  0  0  0  0  0  0  0  0  0  0  0
   12.7468  -11.6970    0.9042 H   0  0  0  0  0  0  0  0  0  0  0  0
   14.1085  -13.8372   -0.9152 H   0  0  0  0  0  0  0  0  0  0  0  0
   14.1085  -13.8372    0.9152 H   0  0  0  0  0  0  0  0  0  0  0  0
  1  4  1  0  0  0  0
  2  3  1  0  0  0  0
  2  6  1  0  0  0  0
  2  7  1  0  0  0  0
  2  8  1  0  0  0  0
  3  4  1  0  0  0  0
  3  9  1  0  0  0  0
  3 10  1  0  0  0  0
  4  5  2  0  0  0  0
M  CHG  2   1  -1   4   1
M  END