./000079-92-5.hin
 OpenBabel09241315583D

 26 27  0  0  1  0  0  0  0  0999 V2000
   -1.4784   -0.9942    1.9684 C   0  0  0  0  0  0  0  0  0  0  0  0
    0.0182   -1.2834    1.9496 C   0  0  0  0  0  0  0  0  0  0  0  0
    0.7163    0.0582    1.9030 C   0  0  2  0  0  0  0  0  0  0  0  0
    0.5098    0.7120    3.2894 C   0  0  0  0  0  0  0  0  0  0  0  0
   -0.9819    1.0984    3.2938 C   0  0  0  0  0  0  0  0  0  0  0  0
   -1.5019    0.5676    1.9435 C   0  0  1  0  0  0  0  0  0  0  0  0
   -2.1442   -1.5811    3.1977 C   0  0  0  0  0  0  0  0  0  0  0  0
   -2.4719    0.9899    1.6231 H   0  0  0  0  0  0  0  0  0  0  0  0
   -1.1024    2.2084    3.3367 H   0  0  0  0  0  0  0  0  0  0  0  0
   -2.1636   -1.5448    0.7294 C   0  0  0  0  0  0  0  0  0  0  0  0
    1.7663    0.0334    1.5556 H   0  0  0  0  0  0  0  0  0  0  0  0
    0.7515    0.0000    4.1126 H   0  0  0  0  0  0  0  0  0  0  0  0
    0.5980   -2.4774    1.9615 C   0  0  0  0  0  0  0  0  0  0  0  0
    0.0180   -3.4088    1.9943 H   0  0  0  0  0  0  0  0  0  0  0  0
    1.6882   -2.6005    1.9401 H   0  0  0  0  0  0  0  0  0  0  0  0
   -0.2793    0.8788    1.0365 C   0  0  0  0  0  0  0  0  0  0  0  0
    1.1597    1.6125    3.3949 H   0  0  0  0  0  0  0  0  0  0  0  0
   -1.5266    0.6619    4.1618 H   0  0  0  0  0  0  0  0  0  0  0  0
   -1.5116   -1.4335    4.1059 H   0  0  0  0  0  0  0  0  0  0  0  0
   -3.1366   -1.0979    3.3645 H   0  0  0  0  0  0  0  0  0  0  0  0
   -2.2989   -2.6795    3.0614 H   0  0  0  0  0  0  0  0  0  0  0  0
   -2.0202   -2.6511    0.6729 H   0  0  0  0  0  0  0  0  0  0  0  0
   -3.2579   -1.3260    0.7720 H   0  0  0  0  0  0  0  0  0  0  0  0
   -1.7456   -1.0881   -0.1987 H   0  0  0  0  0  0  0  0  0  0  0  0
   -0.3801    0.4906    0.0009 H   0  0  0  0  0  0  0  0  0  0  0  0
   -0.0303    1.9619    1.0061 H   0  0  0  0  0  0  0  0  0  0  0  0
  1  2  1  0  0  0  0
  1  6  1  0  0  0  0
  1  7  1  0  0  0  0
  1 10  1  0  0  0  0
  2  3  1  0  0  0  0
  2 13  2  0  0  0  0
  3  4  1  0  0  0  0
  3 11  1  6  0  0  0
  3 16  1  0  0  0  0
  4  5  1  0  0  0  0
  4 12  1  0  0  0  0
  4 17  1  0  0  0  0
  5  6  1  0  0  0  0
  5  9  1  0  0  0  0
  5 18  1  0  0  0  0
  6  8  1  6  0  0  0
  6 16  1  0  0  0  0
  7 19  1  0  0  0  0
  7 20  1  0  0  0  0
  7 21  1  0  0  0  0
 10 22  1  0  0  0  0
 10 23  1  0  0  0  0
 10 24  1  0  0  0  0
 13 14  1  0  0  0  0
 13 15  1  0  0  0  0
 16 25  1  0  0  0  0
 16 26  1  0  0  0  0
M  END
