./000080-56-8.hin
 OpenBabel09241315583D

 26 27  0  0  1  0  0  0  0  0999 V2000
   -1.1988   -0.6816    0.1761 C   0  0  0  0  0  0  0  0  0  0  0  0
   -1.7810   -0.0471    1.4016 C   0  0  0  0  0  0  0  0  0  0  0  0
   -1.5748    1.4633    1.3652 C   0  0  1  0  0  0  0  0  0  0  0  0
   -0.6424    0.0824   -0.7876 C   0  0  0  0  0  0  0  0  0  0  0  0
   -0.6051    1.5602   -0.5328 C   0  0  2  0  0  0  0  0  0  0  0  0
   -0.0592   -0.4312   -2.0397 C   0  0  0  0  0  0  0  0  0  0  0  0
   -0.0996    1.7148    0.9383 C   0  0  0  0  0  0  0  0  0  0  0  0
   -2.0271    2.0223   -0.0316 C   0  0  0  0  0  0  0  0  0  0  0  0
   -2.1556    3.5280   -0.0250 C   0  0  0  0  0  0  0  0  0  0  0  0
   -3.2497    1.4240   -0.6670 C   0  0  0  0  0  0  0  0  0  0  0  0
   -1.2645   -1.7747    0.1068 H   0  0  0  0  0  0  0  0  0  0  0  0
   -1.2886   -0.4726    2.3152 H   0  0  0  0  0  0  0  0  0  0  0  0
   -2.8761   -0.2830    1.4612 H   0  0  0  0  0  0  0  0  0  0  0  0
   -1.9521    1.9930    2.2571 H   0  0  0  0  0  0  0  0  0  0  0  0
   -0.5969    0.0027   -2.9202 H   0  0  0  0  0  0  0  0  0  0  0  0
    1.0184   -0.1378   -2.1124 H   0  0  0  0  0  0  0  0  0  0  0  0
   -0.1276   -1.5454   -2.0965 H   0  0  0  0  0  0  0  0  0  0  0  0
    0.2724    2.7315    1.1789 H   0  0  0  0  0  0  0  0  0  0  0  0
    0.6314    0.9529    1.2738 H   0  0  0  0  0  0  0  0  0  0  0  0
   -1.2923    4.0114    0.4913 H   0  0  0  0  0  0  0  0  0  0  0  0
   -2.1982    3.9126   -1.0731 H   0  0  0  0  0  0  0  0  0  0  0  0
   -3.0935    3.8283    0.5027 H   0  0  0  0  0  0  0  0  0  0  0  0
   -4.1340    1.5821   -0.0015 H   0  0  0  0  0  0  0  0  0  0  0  0
   -3.4527    1.9189   -1.6488 H   0  0  0  0  0  0  0  0  0  0  0  0
   -3.1407    0.3283   -0.8492 H   0  0  0  0  0  0  0  0  0  0  0  0
   -0.1268    2.1680   -1.3187 H   0  0  0  0  0  0  0  0  0  0  0  0
  1  2  1  0  0  0  0
  1  4  2  0  0  0  0
  1 11  1  0  0  0  0
  2  3  1  0  0  0  0
  2 12  1  0  0  0  0
  2 13  1  0  0  0  0
  3  7  1  0  0  0  0
  3  8  1  0  0  0  0
  3 14  1  1  0  0  0
  4  5  1  0  0  0  0
  4  6  1  0  0  0  0
  5  7  1  0  0  0  0
  5  8  1  0  0  0  0
  5 26  1  6  0  0  0
  6 15  1  0  0  0  0
  6 16  1  0  0  0  0
  6 17  1  0  0  0  0
  7 18  1  0  0  0  0
  7 19  1  0  0  0  0
  8  9  1  0  0  0  0
  8 10  1  0  0  0  0
  9 20  1  0  0  0  0
  9 21  1  0  0  0  0
  9 22  1  0  0  0  0
 10 23  1  0  0  0  0
 10 24  1  0  0  0  0
 10 25  1  0  0  0  0
M  END
