./000083-32-9.hin
 OpenBabel09241315583D

 22 24  0  0  0  0  0  0  0  0999 V2000
   -2.4364   -2.4911    0.0000 C   0  0  0  0  0  0  0  0  0  0  0  0
   -2.9072    1.2740   -0.0003 C   0  0  0  0  0  0  0  0  0  0  0  0
   -3.5898   -0.1219    0.0002 C   0  0  0  0  0  0  0  0  0  0  0  0
   -2.4739   -1.1221    0.0001 C   0  0  0  0  0  0  0  0  0  0  0  0
   -1.2383   -0.4070   -0.0000 C   0  0  0  0  0  0  0  0  0  0  0  0
   -1.4326    1.0074   -0.0001 C   0  0  0  0  0  0  0  0  0  0  0  0
   -1.1683   -3.1396   -0.0001 C   0  0  0  0  0  0  0  0  0  0  0  0
    0.0212   -2.4450   -0.0000 C   0  0  0  0  0  0  0  0  0  0  0  0
    0.0179   -1.0212   -0.0000 C   0  0  0  0  0  0  0  0  0  0  0  0
   -0.3290    1.8184   -0.0000 C   0  0  0  0  0  0  0  0  0  0  0  0
    0.9615    1.2157    0.0000 C   0  0  0  0  0  0  0  0  0  0  0  0
    1.1437   -0.1496    0.0000 C   0  0  0  0  0  0  0  0  0  0  0  0
   -3.3509   -3.0993    0.0000 H   0  0  0  0  0  0  0  0  0  0  0  0
   -3.2063    1.8562   -0.9065 H   0  0  0  0  0  0  0  0  0  0  0  0
   -3.2065    1.8570    0.9054 H   0  0  0  0  0  0  0  0  0  0  0  0
   -4.2331   -0.2432    0.9065 H   0  0  0  0  0  0  0  0  0  0  0  0
   -4.2338   -0.2436   -0.9054 H   0  0  0  0  0  0  0  0  0  0  0  0
   -1.1558   -4.2406   -0.0001 H   0  0  0  0  0  0  0  0  0  0  0  0
    0.9839   -2.9758   -0.0001 H   0  0  0  0  0  0  0  0  0  0  0  0
   -0.4107    2.9136   -0.0000 H   0  0  0  0  0  0  0  0  0  0  0  0
    1.8382    1.8820    0.0001 H   0  0  0  0  0  0  0  0  0  0  0  0
    2.1537   -0.5837    0.0001 H   0  0  0  0  0  0  0  0  0  0  0  0
  1  4  2  0  0  0  0
  1  7  1  0  0  0  0
  1 13  1  0  0  0  0
  2  3  1  0  0  0  0
  2  6  1  0  0  0  0
  2 14  1  0  0  0  0
  2 15  1  0  0  0  0
  3  4  1  0  0  0  0
  3 16  1  0  0  0  0
  3 17  1  0  0  0  0
  4  5  1  0  0  0  0
  5  6  2  0  0  0  0
  5  9  1  0  0  0  0
  6 10  1  0  0  0  0
  7  8  2  0  0  0  0
  7 18  1  0  0  0  0
  8  9  1  0  0  0  0
  8 19  1  0  0  0  0
  9 12  2  0  0  0  0
 10 11  2  0  0  0  0
 10 20  1  0  0  0  0
 11 12  1  0  0  0  0
 11 21  1  0  0  0  0
 12 22  1  0  0  0  0
M  END
