./000086-57-7.hin
  ACCLDraw05131600033D

 20 21  0  0  0  0  0  0  0  0999 V2000
   -1.2622    4.7951    4.0319 N   0  3  0  0  0  0  0  0  0  0  0  0
   -1.2141    0.3667    4.0319 C   0  0  0  0  0  0  0  0  0  0  0  0
   -1.2662    1.7406    4.0319 C   0  0  0  0  0  0  0  0  0  0  0  0
   -0.0761    2.5199    4.0319 C   0  0  0  0  0  0  0  0  0  0  0  0
    1.1708    1.8305    4.0319 C   0  0  0  0  0  0  0  0  0  0  0  0
    1.1930    0.4081    4.0319 C   0  0  0  0  0  0  0  0  0  0  0  0
    0.0255   -0.3121    4.0319 C   0  0  0  0  0  0  0  0  0  0  0  0
   -0.0322    3.9537    4.0319 C   0  0  0  0  0  0  0  0  0  0  0  0
    1.1801    4.6330    4.0319 C   0  0  0  0  0  0  0  0  0  0  0  0
    2.3976    3.9237    4.0319 C   0  0  0  0  0  0  0  0  0  0  0  0
    2.3944    2.5516    4.0319 C   0  0  0  0  0  0  0  0  0  0  0  0
    2.1696   -0.1002    4.0319 H   0  0  0  0  0  0  0  0  0  0  0  0
    0.0398   -1.4122    4.0319 H   0  0  0  0  0  0  0  0  0  0  0  0
    1.2084    5.7384    4.0319 H   0  0  0  0  0  0  0  0  0  0  0  0
    3.3415    4.4900    4.0319 H   0  0  0  0  0  0  0  0  0  0  0  0
    3.3403    1.9863    4.0319 H   0  0  0  0  0  0  0  0  0  0  0  0
   -1.1239    5.9925    4.0319 O   0  0  0  0  0  0  0  0  0  0  0  0
   -2.3575    4.3020    4.0319 O   0  5  0  0  0  0  0  0  0  0  0  0
   -2.1457   -0.2204    4.0319 H   0  0  0  0  0  0  0  0  0  0  0  0
   -2.2551    2.2278    4.0319 H   0  0  0  0  0  0  0  0  0  0  0  0
  1  8  1  0  0  0  0
  1 17  2  0  0  0  0
  1 18  1  0  0  0  0
  2  3  2  0  0  0  0
  2  7  1  0  0  0  0
  2 19  1  0  0  0  0
  3  4  1  0  0  0  0
  3 20  1  0  0  0  0
  4  5  2  0  0  0  0
  4  8  1  0  0  0  0
  5  6  1  0  0  0  0
  5 11  1  0  0  0  0
  6  7  2  0  0  0  0
  6 12  1  0  0  0  0
  7 13  1  0  0  0  0
  8  9  2  0  0  0  0
  9 10  1  0  0  0  0
  9 14  1  0  0  0  0
 10 11  2  0  0  0  0
 10 15  1  0  0  0  0
 11 16  1  0  0  0  0
M  CHG  2   1   1  18  -1
M  END
