./000090-12-0.hin
 OpenBabel09241315583D

 21 22  0  0  0  0  0  0  0  0999 V2000
   -1.3090    4.7310   -0.0000 C   0  0  0  0  0  0  0  0  0  0  0  0
   -1.2423    0.4290   -0.0000 C   0  0  0  0  0  0  0  0  0  0  0  0
   -1.2603    1.8021   -0.0000 C   0  0  0  0  0  0  0  0  0  0  0  0
   -0.0485    2.5476   -0.0000 C   0  0  0  0  0  0  0  0  0  0  0  0
    1.1833    1.8427    0.0000 C   0  0  0  0  0  0  0  0  0  0  0  0
    1.1736    0.4204    0.0000 C   0  0  0  0  0  0  0  0  0  0  0  0
   -0.0122   -0.2709    0.0000 C   0  0  0  0  0  0  0  0  0  0  0  0
   -0.0329    3.9769   -0.0000 C   0  0  0  0  0  0  0  0  0  0  0  0
    1.1725    4.6465   -0.0000 C   0  0  0  0  0  0  0  0  0  0  0  0
    2.3972    3.9401    0.0000 C   0  0  0  0  0  0  0  0  0  0  0  0
    2.4060    2.5681    0.0000 C   0  0  0  0  0  0  0  0  0  0  0  0
   -1.1268    5.8339    0.0000 H   0  0  0  0  0  0  0  0  0  0  0  0
   -1.9122    4.4755   -0.9072 H   0  0  0  0  0  0  0  0  0  0  0  0
   -1.9122    4.4755    0.9072 H   0  0  0  0  0  0  0  0  0  0  0  0
   -2.1819   -0.1429   -0.0000 H   0  0  0  0  0  0  0  0  0  0  0  0
   -2.2179    2.3446   -0.0000 H   0  0  0  0  0  0  0  0  0  0  0  0
    2.1369   -0.1116    0.0000 H   0  0  0  0  0  0  0  0  0  0  0  0
   -0.0221   -1.3707    0.0000 H   0  0  0  0  0  0  0  0  0  0  0  0
    1.1965    5.7469   -0.0000 H   0  0  0  0  0  0  0  0  0  0  0  0
    3.3394    4.5081    0.0000 H   0  0  0  0  0  0  0  0  0  0  0  0
    3.3526    2.0076    0.0000 H   0  0  0  0  0  0  0  0  0  0  0  0
  1  8  1  0  0  0  0
  1 12  1  0  0  0  0
  1 13  1  0  0  0  0
  1 14  1  0  0  0  0
  2  3  2  0  0  0  0
  2  7  1  0  0  0  0
  2 15  1  0  0  0  0
  3  4  1  0  0  0  0
  3 16  1  0  0  0  0
  4  5  2  0  0  0  0
  4  8  1  0  0  0  0
  5  6  1  0  0  0  0
  5 11  1  0  0  0  0
  6  7  2  0  0  0  0
  6 17  1  0  0  0  0
  7 18  1  0  0  0  0
  8  9  2  0  0  0  0
  9 10  1  0  0  0  0
  9 19  1  0  0  0  0
 10 11  2  0  0  0  0
 10 20  1  0  0  0  0
 11 21  1  0  0  0  0
M  END
