./000095-50-1.hin
 OpenBabel09241315583D

 12 12  0  0  0  0  0  0  0  0999 V2000
   -1.2762   -0.6411    0.0000 C   0  0  0  0  0  0  0  0  0  0  0  0
   -1.2805    0.7515    0.0000 C   0  0  0  0  0  0  0  0  0  0  0  0
   -0.0680   -1.3387   -0.0000 C   0  0  0  0  0  0  0  0  0  0  0  0
    1.1402   -0.6461    0.0000 C   0  0  0  0  0  0  0  0  0  0  0  0
    1.1448    0.7538   -0.0000 C   0  0  0  0  0  0  0  0  0  0  0  0
   -0.0704    1.4554   -0.0000 C   0  0  0  0  0  0  0  0  0  0  0  0
   -2.2299   -1.1898    0.0000 H   0  0  0  0  0  0  0  0  0  0  0  0
   -2.2342    1.3017    0.0000 H   0  0  0  0  0  0  0  0  0  0  0  0
   -0.0663   -2.4389   -0.0000 H   0  0  0  0  0  0  0  0  0  0  0  0
    2.0936   -1.1969    0.0000 H   0  0  0  0  0  0  0  0  0  0  0  0
    2.6303    1.5730   -0.0000 Cl  0  0  0  0  0  0  0  0  0  0  0  0
   -0.1037    3.1515   -0.0000 Cl  0  0  0  0  0  0  0  0  0  0  0  0
  1  2  2  0  0  0  0
  1  3  1  0  0  0  0
  1  7  1  0  0  0  0
  2  6  1  0  0  0  0
  2  8  1  0  0  0  0
  3  4  2  0  0  0  0
  3  9  1  0  0  0  0
  4  5  1  0  0  0  0
  4 10  1  0  0  0  0
  5  6  2  0  0  0  0
  5 11  1  0  0  0  0
  6 12  1  0  0  0  0
M  END
