./000098-08-8.hin
 OpenBabel09241315583D

 15 15  0  0  0  0  0  0  0  0999 V2000
   -3.5267   -4.9741   14.9999 F   0  0  0  0  0  0  0  0  0  0  0  0
   -1.6950   -1.7393   15.0000 C   0  0  0  0  0  0  0  0  0  0  0  0
   -0.3822   -1.2707   15.0000 C   0  0  0  0  0  0  0  0  0  0  0  0
   -1.9363   -3.1159   15.0000 C   0  0  0  0  0  0  0  0  0  0  0  0
   -0.8756   -4.0233   15.0000 C   0  0  0  0  0  0  0  0  0  0  0  0
    0.4355   -3.5469   15.0000 C   0  0  0  0  0  0  0  0  0  0  0  0
    0.6820   -2.1738   15.0000 C   0  0  0  0  0  0  0  0  0  0  0  0
   -2.5425   -1.0364   15.0000 H   0  0  0  0  0  0  0  0  0  0  0  0
   -0.1879   -0.1879   15.0000 H   0  0  0  0  0  0  0  0  0  0  0  0
   -1.0754   -5.1066   15.0000 H   0  0  0  0  0  0  0  0  0  0  0  0
    1.2744   -4.2587   15.0000 H   0  0  0  0  0  0  0  0  0  0  0  0
   -3.3774   -3.6087   15.0000 C   0  0  0  0  0  0  0  0  0  0  0  0
   -4.1146   -3.1916   16.0829 F   0  0  0  0  0  0  0  0  0  0  0  0
   -4.1148   -3.1914   13.9174 F   0  0  0  0  0  0  0  0  0  0  0  0
    1.7177   -1.8016   15.0000 H   0  0  0  0  0  0  0  0  0  0  0  0
  1 12  1  0  0  0  0
  2  3  2  0  0  0  0
  2  4  1  0  0  0  0
  2  8  1  0  0  0  0
  3  7  1  0  0  0  0
  3  9  1  0  0  0  0
  4  5  2  0  0  0  0
  4 12  1  0  0  0  0
  5  6  1  0  0  0  0
  5 10  1  0  0  0  0
  6  7  2  0  0  0  0
  6 11  1  0  0  0  0
  7 15  1  0  0  0  0
 12 13  1  0  0  0  0
 12 14  1  0  0  0  0
M  END
