./000098-83-9.hin
 OpenBabel09241315583D

 19 19  0  0  0  0  0  0  0  0999 V2000
   -1.1877    1.1114   -0.0417 C   0  0  0  0  0  0  0  0  0  0  0  0
   -1.1672    2.5041   -0.0417 C   0  0  0  0  0  0  0  0  0  0  0  0
    0.0051    0.3895   -0.0417 C   0  0  0  0  0  0  0  0  0  0  0  0
    1.2195    1.0733   -0.0417 C   0  0  0  0  0  0  0  0  0  0  0  0
    1.2422    2.4664   -0.0417 C   0  0  0  0  0  0  0  0  0  0  0  0
    0.0492    3.2074   -0.0417 C   0  0  0  0  0  0  0  0  0  0  0  0
   -2.1511    0.5804   -0.0417 H   0  0  0  0  0  0  0  0  0  0  0  0
   -2.1240    3.0475   -0.0417 H   0  0  0  0  0  0  0  0  0  0  0  0
   -0.0124   -0.7097   -0.0417 H   0  0  0  0  0  0  0  0  0  0  0  0
    2.1661    0.5129   -0.0417 H   0  0  0  0  0  0  0  0  0  0  0  0
    2.2154    2.9791   -0.0417 H   0  0  0  0  0  0  0  0  0  0  0  0
    0.0659    4.6716   -0.0417 C   0  0  0  0  0  0  0  0  0  0  0  0
   -1.2528    5.3632   -0.0417 C   0  0  0  0  0  0  0  0  0  0  0  0
   -1.1262    6.4739   -0.0417 H   0  0  0  0  0  0  0  0  0  0  0  0
   -1.8406    5.0801   -0.9502 H   0  0  0  0  0  0  0  0  0  0  0  0
   -1.8406    5.0801    0.8668 H   0  0  0  0  0  0  0  0  0  0  0  0
    1.1943    5.3972   -0.0417 C   0  0  0  0  0  0  0  0  0  0  0  0
    1.1722    6.4954   -0.0417 H   0  0  0  0  0  0  0  0  0  0  0  0
    2.2006    4.9634   -0.0417 H   0  0  0  0  0  0  0  0  0  0  0  0
  1  2  2  0  0  0  0
  1  3  1  0  0  0  0
  1  7  1  0  0  0  0
  2  6  1  0  0  0  0
  2  8  1  0  0  0  0
  3  4  2  0  0  0  0
  3  9  1  0  0  0  0
  4  5  1  0  0  0  0
  4 10  1  0  0  0  0
  5  6  2  0  0  0  0
  5 11  1  0  0  0  0
  6 12  1  0  0  0  0
 12 13  1  0  0  0  0
 12 17  2  0  0  0  0
 13 14  1  0  0  0  0
 13 15  1  0  0  0  0
 13 16  1  0  0  0  0
 17 18  1  0  0  0  0
 17 19  1  0  0  0  0
M  END
