./000099-08-1.hin
 OpenBabel09241315583D

 17 17  0  0  0  0  0  0  0  0999 V2000
    1.0270    1.4113    0.0011 N   0  3  0  0  0  0  0  0  0  0  0  0
    1.0056    0.2093    0.0011 O   0  0  0  0  0  0  0  0  0  0  0  0
    2.0576    2.0303    0.0011 O   0  5  0  0  0  0  0  0  0  0  0  0
   -2.6783    2.1422    0.0011 C   0  0  0  0  0  0  0  0  0  0  0  0
   -2.6661    3.5434    0.0011 C   0  0  0  0  0  0  0  0  0  0  0  0
   -1.4610    4.2423    0.0011 C   0  0  0  0  0  0  0  0  0  0  0  0
   -0.2465    3.5592    0.0011 C   0  0  0  0  0  0  0  0  0  0  0  0
   -0.2602    2.1556    0.0011 C   0  0  0  0  0  0  0  0  0  0  0  0
   -1.4690    1.4416    0.0011 C   0  0  0  0  0  0  0  0  0  0  0  0
   -3.9680    1.4134    0.0011 C   0  0  0  0  0  0  0  0  0  0  0  0
   -3.6206    4.0928    0.0011 H   0  0  0  0  0  0  0  0  0  0  0  0
   -1.4628    5.3431    0.0011 H   0  0  0  0  0  0  0  0  0  0  0  0
    0.7097    4.1092    0.0011 H   0  0  0  0  0  0  0  0  0  0  0  0
   -3.8118    0.3068    0.0011 H   0  0  0  0  0  0  0  0  0  0  0  0
   -4.5651    1.6854    0.9075 H   0  0  0  0  0  0  0  0  0  0  0  0
   -4.5651    1.6854   -0.9053 H   0  0  0  0  0  0  0  0  0  0  0  0
   -1.4620    0.3379    0.0011 H   0  0  0  0  0  0  0  0  0  0  0  0
  1  2  2  0  0  0  0
  1  3  1  0  0  0  0
  1  8  1  0  0  0  0
  4  5  2  0  0  0  0
  4  9  1  0  0  0  0
  4 10  1  0  0  0  0
  5  6  1  0  0  0  0
  5 11  1  0  0  0  0
  6  7  2  0  0  0  0
  6 12  1  0  0  0  0
  7  8  1  0  0  0  0
  7 13  1  0  0  0  0
  8  9  2  0  0  0  0
  9 17  1  0  0  0  0
 10 14  1  0  0  0  0
 10 15  1  0  0  0  0
 10 16  1  0  0  0  0
M  CHG   2   1   1   3  -1
M  END
