./000099-82-1.hin
 OpenBabel09241315583D

 30 30  0  0  1  0  0  0  0  0999 V2000
    3.3661   -0.3906   -1.4026 C   0  0  0  0  0  0  0  0  0  0  0  0
    0.4624    1.6554   -3.9608 C   0  0  0  0  0  0  0  0  0  0  0  0
    2.6476    1.6342   -2.7117 C   0  0  2  0  0  0  0  0  0  0  0  0
    2.6548    3.1569   -2.7609 C   0  0  0  0  0  0  0  0  0  0  0  0
    1.2144    1.1198   -2.7609 C   0  0  0  0  0  0  0  0  0  0  0  0
    1.8992    3.6874   -3.9608 C   0  0  0  0  0  0  0  0  0  0  0  0
    0.4674    3.1758   -3.9877 C   0  0  1  0  0  0  0  0  0  0  0  0
   -0.5959    1.2861   -3.9330 H   0  0  0  0  0  0  0  0  0  0  0  0
    0.9305    1.2660   -4.9030 H   0  0  0  0  0  0  0  0  0  0  0  0
    3.7126    3.5264   -2.8110 H   0  0  0  0  0  0  0  0  0  0  0  0
    2.1985    3.5599   -1.8191 H   0  0  0  0  0  0  0  0  0  0  0  0
    0.6823    1.4157   -1.8190 H   0  0  0  0  0  0  0  0  0  0  0  0
    1.2186   -0.0006   -2.8110 H   0  0  0  0  0  0  0  0  0  0  0  0
    2.4223    3.3758   -4.9030 H   0  0  0  0  0  0  0  0  0  0  0  0
    1.8947    4.8082   -3.9330 H   0  0  0  0  0  0  0  0  0  0  0  0
   -0.2637    3.6928   -5.2067 C   0  0  0  0  0  0  0  0  0  0  0  0
   -0.0608    3.5493   -3.0651 H   0  0  0  0  0  0  0  0  0  0  0  0
    3.1945    1.2475   -3.6172 H   0  0  0  0  0  0  0  0  0  0  0  0
    3.3684    1.1246   -1.4606 C   0  0  0  0  0  0  0  0  0  0  0  0
    4.7962    1.6317   -1.4026 C   0  0  0  0  0  0  0  0  0  0  0  0
    2.3374   -0.7782   -1.2076 H   0  0  0  0  0  0  0  0  0  0  0  0
    3.7334   -0.8217   -2.3646 H   0  0  0  0  0  0  0  0  0  0  0  0
    4.0309   -0.7478   -0.5788 H   0  0  0  0  0  0  0  0  0  0  0  0
    0.2332    3.3414   -6.1430 H   0  0  0  0  0  0  0  0  0  0  0  0
   -1.3192    3.3287   -5.2093 H   0  0  0  0  0  0  0  0  0  0  0  0
   -0.2722    4.8093   -5.2093 H   0  0  0  0  0  0  0  0  0  0  0  0
    2.8174    1.5141   -0.5578 H   0  0  0  0  0  0  0  0  0  0  0  0
    4.8186    2.7308   -1.2076 H   0  0  0  0  0  0  0  0  0  0  0  0
    5.3545    1.1240   -0.5788 H   0  0  0  0  0  0  0  0  0  0  0  0
    5.3250    1.4291   -2.3646 H   0  0  0  0  0  0  0  0  0  0  0  0
  1 19  1  0  0  0  0
  1 21  1  0  0  0  0
  1 22  1  0  0  0  0
  1 23  1  0  0  0  0
  2  5  1  0  0  0  0
  2  7  1  0  0  0  0
  2  8  1  0  0  0  0
  2  9  1  0  0  0  0
  3  4  1  0  0  0  0
  3  5  1  0  0  0  0
  3 18  1  6  0  0  0
  3 19  1  0  0  0  0
  4  6  1  0  0  0  0
  4 10  1  0  0  0  0
  4 11  1  0  0  0  0
  5 12  1  0  0  0  0
  5 13  1  0  0  0  0
  6  7  1  0  0  0  0
  6 14  1  0  0  0  0
  6 15  1  0  0  0  0
  7 16  1  0  0  0  0
  7 17  1  1  0  0  0
 16 24  1  0  0  0  0
 16 25  1  0  0  0  0
 16 26  1  0  0  0  0
 19 20  1  0  0  0  0
 19 27  1  0  0  0  0
 20 28  1  0  0  0  0
 20 29  1  0  0  0  0
 20 30  1  0  0  0  0
M  END
