./000099-83-2.hin
 OpenBabel02061415193D

 26 26  0  0  1  0  0  0  0  0999 V2000
    0.7221   -0.3123    0.7432 C   0  0  0  0  0  0  0  0  0  0  0  0
    0.4961   -1.6192    0.9768 C   0  0  0  0  0  0  0  0  0  0  0  0
   -0.7454   -2.2210    0.5165 C   0  0  0  0  0  0  0  0  0  0  0  0
   -1.7386   -1.4650    0.0254 C   0  0  0  0  0  0  0  0  0  0  0  0
   -1.6645    0.0207   -0.0778 C   0  0  2  0  0  0  0  0  0  0  0  0
   -0.2293    0.5443   -0.0032 C   0  0  0  0  0  0  0  0  0  0  0  0
    1.4556   -2.4938    1.6872 C   0  0  0  0  0  0  0  0  0  0  0  0
    1.6511    0.1781    1.0711 H   0  0  0  0  0  0  0  0  0  0  0  0
   -0.8292   -3.3159    0.5879 H   0  0  0  0  0  0  0  0  0  0  0  0
   -2.6803   -1.9166   -0.3239 H   0  0  0  0  0  0  0  0  0  0  0  0
   -0.2277    1.5713    0.4525 H   0  0  0  0  0  0  0  0  0  0  0  0
    0.9773   -2.9289    2.6002 H   0  0  0  0  0  0  0  0  0  0  0  0
    1.7708   -3.3376    1.0234 H   0  0  0  0  0  0  0  0  0  0  0  0
    2.3679   -1.9297    2.0002 H   0  0  0  0  0  0  0  0  0  0  0  0
    0.1668    0.6554   -1.0520 H   0  0  0  0  0  0  0  0  0  0  0  0
   -2.5539    0.6908    0.9810 C   0  0  0  0  0  0  0  0  0  0  0  0
   -2.8795    2.1166    0.5795 C   0  0  0  0  0  0  0  0  0  0  0  0
   -3.8426   -0.0740    1.2041 C   0  0  0  0  0  0  0  0  0  0  0  0
   -2.0767    0.3069   -1.0902 H   0  0  0  0  0  0  0  0  0  0  0  0
   -1.9823    0.7110    1.9515 H   0  0  0  0  0  0  0  0  0  0  0  0
   -3.4572    2.6202    1.3920 H   0  0  0  0  0  0  0  0  0  0  0  0
   -1.9498    2.7052    0.3935 H   0  0  0  0  0  0  0  0  0  0  0  0
   -3.4965    2.1298   -0.3514 H   0  0  0  0  0  0  0  0  0  0  0  0
   -4.5138    0.4985    1.8896 H   0  0  0  0  0  0  0  0  0  0  0  0
   -4.3786   -0.2335    0.2377 H   0  0  0  0  0  0  0  0  0  0  0  0
   -3.6366   -1.0692    1.6667 H   0  0  0  0  0  0  0  0  0  0  0  0
  1  2  2  0  0  0  0
  1  6  1  0  0  0  0
  1  8  1  0  0  0  0
  2  3  1  0  0  0  0
  2  7  1  0  0  0  0
  3  4  2  0  0  0  0
  3  9  1  0  0  0  0
  4  5  1  0  0  0  0
  4 10  1  0  0  0  0
  5  6  1  0  0  0  0
  5 16  1  0  0  0  0
  5 19  1  6  0  0  0
  6 11  1  0  0  0  0
  6 15  1  0  0  0  0
  7 12  1  0  0  0  0
  7 13  1  0  0  0  0
  7 14  1  0  0  0  0
 16 17  1  0  0  0  0
 16 18  1  0  0  0  0
 16 20  1  0  0  0  0
 17 21  1  0  0  0  0
 17 22  1  0  0  0  0
 17 23  1  0  0  0  0
 18 24  1  0  0  0  0
 18 25  1  0  0  0  0
 18 26  1  0  0  0  0
M  END
