./000099-86-5.hin
 OpenBabel02061415193D

 26 26  0  0  0  0  0  0  0  0999 V2000
   -0.6942    4.0547   11.8779 C   0  0  0  0  0  0  0  0  0  0  0  0
    0.3435    4.7683   12.6532 C   0  0  0  0  0  0  0  0  0  0  0  0
    0.5042    6.2186   12.3530 C   0  0  0  0  0  0  0  0  0  0  0  0
    1.8499    6.7909   12.7611 C   0  0  0  0  0  0  0  0  0  0  0  0
    2.4461    6.1566   13.9726 C   0  0  0  0  0  0  0  0  0  0  0  0
    2.0857    4.9128   14.3457 C   0  0  0  0  0  0  0  0  0  0  0  0
    1.0826    4.1738   13.6106 C   0  0  0  0  0  0  0  0  0  0  0  0
    3.4782    6.9735   14.6813 C   0  0  0  0  0  0  0  0  0  0  0  0
    2.8183    7.9332   15.6557 C   0  0  0  0  0  0  0  0  0  0  0  0
    4.5086    6.1262   15.4006 C   0  0  0  0  0  0  0  0  0  0  0  0
   -0.3998    4.0046   10.7991 H   0  0  0  0  0  0  0  0  0  0  0  0
   -0.8412    3.0119   12.2516 H   0  0  0  0  0  0  0  0  0  0  0  0
   -1.6702    4.5976   11.9468 H   0  0  0  0  0  0  0  0  0  0  0  0
   -0.3164    6.7713   12.8899 H   0  0  0  0  0  0  0  0  0  0  0  0
    0.3527    6.3965   11.2545 H   0  0  0  0  0  0  0  0  0  0  0  0
    1.7354    7.8956   12.9310 H   0  0  0  0  0  0  0  0  0  0  0  0
    2.5825    6.6638   11.9160 H   0  0  0  0  0  0  0  0  0  0  0  0
    2.5372    4.4124   15.2154 H   0  0  0  0  0  0  0  0  0  0  0  0
    0.9507    3.1120   13.8669 H   0  0  0  0  0  0  0  0  0  0  0  0
    4.0218    7.5855   13.9018 H   0  0  0  0  0  0  0  0  0  0  0  0
    3.5929    8.5687   16.1485 H   0  0  0  0  0  0  0  0  0  0  0  0
    2.0972    8.5972   15.1214 H   0  0  0  0  0  0  0  0  0  0  0  0
    2.2645    7.3709   16.4451 H   0  0  0  0  0  0  0  0  0  0  0  0
    5.3471    6.7715   15.7583 H   0  0  0  0  0  0  0  0  0  0  0  0
    4.0581    5.6169   16.2864 H   0  0  0  0  0  0  0  0  0  0  0  0
    4.9224    5.3485   14.7153 H   0  0  0  0  0  0  0  0  0  0  0  0
  1  2  1  0  0  0  0
  1 11  1  0  0  0  0
  1 12  1  0  0  0  0
  1 13  1  0  0  0  0
  2  3  1  0  0  0  0
  2  7  2  0  0  0  0
  3  4  1  0  0  0  0
  3 14  1  0  0  0  0
  3 15  1  0  0  0  0
  4  5  1  0  0  0  0
  4 16  1  0  0  0  0
  4 17  1  0  0  0  0
  5  6  2  0  0  0  0
  5  8  1  0  0  0  0
  6  7  1  0  0  0  0
  6 18  1  0  0  0  0
  7 19  1  0  0  0  0
  8  9  1  0  0  0  0
  8 10  1  0  0  0  0
  8 20  1  0  0  0  0
  9 21  1  0  0  0  0
  9 22  1  0  0  0  0
  9 23  1  0  0  0  0
 10 24  1  0  0  0  0
 10 25  1  0  0  0  0
 10 26  1  0  0  0  0
M  END
