./000100-41-4.hin
 OpenBabel09241315583D

 18 18  0  0  0  0  0  0  0  0999 V2000
   -2.5374    3.3526    0.2621 C   0  0  0  0  0  0  0  0  0  0  0  0
   -2.5224    4.7335    0.4948 C   0  0  0  0  0  0  0  0  0  0  0  0
   -1.3223    5.4406    0.4587 C   0  0  0  0  0  0  0  0  0  0  0  0
   -0.1258    4.7756    0.1894 C   0  0  0  0  0  0  0  0  0  0  0  0
   -0.1340    3.4008   -0.0428 C   0  0  0  0  0  0  0  0  0  0  0  0
   -1.3337    2.6913   -0.0065 C   0  0  0  0  0  0  0  0  0  0  0  0
   -3.8216    2.6004    0.3074 C   0  0  0  0  0  0  0  0  0  0  0  0
   -4.6442    2.8115   -0.9414 C   0  0  0  0  0  0  0  0  0  0  0  0
   -3.6168    1.5037    0.4371 H   0  0  0  0  0  0  0  0  0  0  0  0
   -4.4129    2.9340    1.2030 H   0  0  0  0  0  0  0  0  0  0  0  0
   -4.0956    2.4450   -1.8421 H   0  0  0  0  0  0  0  0  0  0  0  0
   -5.6094    2.2555   -0.8631 H   0  0  0  0  0  0  0  0  0  0  0  0
   -4.8683    3.8963   -1.0843 H   0  0  0  0  0  0  0  0  0  0  0  0
   -3.4656    5.2588    0.7063 H   0  0  0  0  0  0  0  0  0  0  0  0
   -1.3191    6.5247    0.6435 H   0  0  0  0  0  0  0  0  0  0  0  0
    0.8207    5.3342    0.1608 H   0  0  0  0  0  0  0  0  0  0  0  0
    0.8075    2.8732   -0.2546 H   0  0  0  0  0  0  0  0  0  0  0  0
   -1.3346    1.6066   -0.1898 H   0  0  0  0  0  0  0  0  0  0  0  0
  1  2  2  0  0  0  0
  1  6  1  0  0  0  0
  1  7  1  0  0  0  0
  2  3  1  0  0  0  0
  2 14  1  0  0  0  0
  3  4  2  0  0  0  0
  3 15  1  0  0  0  0
  4  5  1  0  0  0  0
  4 16  1  0  0  0  0
  5  6  2  0  0  0  0
  5 17  1  0  0  0  0
  6 18  1  0  0  0  0
  7  8  1  0  0  0  0
  7  9  1  0  0  0  0
  7 10  1  0  0  0  0
  8 11  1  0  0  0  0
  8 12  1  0  0  0  0
  8 13  1  0  0  0  0
M  END
