./000100-44-7.hin
 OpenBabel09241315583D

 15 15  0  0  0  0  0  0  0  0999 V2000
   -0.6883   -1.9728   -0.0000 C   0  0  0  0  0  0  0  0  0  0  0  0
   -0.7230   -0.5774    0.0000 C   0  0  0  0  0  0  0  0  0  0  0  0
    0.5311   -2.6464   -0.0000 C   0  0  0  0  0  0  0  0  0  0  0  0
    1.7234   -1.9203   -0.0000 C   0  0  0  0  0  0  0  0  0  0  0  0
    1.6925   -0.5290    0.0000 C   0  0  0  0  0  0  0  0  0  0  0  0
    0.4664    0.1548    0.0000 C   0  0  0  0  0  0  0  0  0  0  0  0
   -1.6311   -2.5398   -0.0000 H   0  0  0  0  0  0  0  0  0  0  0  0
   -1.6953   -0.0606    0.0000 H   0  0  0  0  0  0  0  0  0  0  0  0
    0.5558   -3.7458   -0.0000 H   0  0  0  0  0  0  0  0  0  0  0  0
    2.6887   -2.4474   -0.0000 H   0  0  0  0  0  0  0  0  0  0  0  0
    2.6335    0.0412    0.0000 H   0  0  0  0  0  0  0  0  0  0  0  0
    0.5206    1.6395    0.0000 C   0  0  0  0  0  0  0  0  0  0  0  0
   -1.0340    2.4523   -0.0000 Cl  0  0  0  0  0  0  0  0  0  0  0  0
    1.0551    2.0032    0.9138 H   0  0  0  0  0  0  0  0  0  0  0  0
    1.0551    2.0032   -0.9138 H   0  0  0  0  0  0  0  0  0  0  0  0
  1  2  2  0  0  0  0
  1  3  1  0  0  0  0
  1  7  1  0  0  0  0
  2  6  1  0  0  0  0
  2  8  1  0  0  0  0
  3  4  2  0  0  0  0
  3  9  1  0  0  0  0
  4  5  1  0  0  0  0
  4 10  1  0  0  0  0
  5  6  2  0  0  0  0
  5 11  1  0  0  0  0
  6 12  1  0  0  0  0
 12 13  1  0  0  0  0
 12 14  1  0  0  0  0
 12 15  1  0  0  0  0
M  END
