./000100-51-6.hin
 OpenBabel09241315583D

 16 16  0  0  0  0  0  0  0  0999 V2000
   -4.1054    1.9832    3.7955 C   0  0  0  0  0  0  0  0  0  0  0  0
   -4.0790    3.3627    4.0167 C   0  0  0  0  0  0  0  0  0  0  0  0
   -2.9263    1.2415    3.8713 C   0  0  0  0  0  0  0  0  0  0  0  0
   -1.7188    1.8718    4.1677 C   0  0  0  0  0  0  0  0  0  0  0  0
   -1.6896    3.2495    4.3890 C   0  0  0  0  0  0  0  0  0  0  0  0
   -2.8642    3.9940    4.3140 C   0  0  0  0  0  0  0  0  0  0  0  0
   -2.9523    0.1560    3.6962 H   0  0  0  0  0  0  0  0  0  0  0  0
   -0.7903    1.2857    4.2272 H   0  0  0  0  0  0  0  0  0  0  0  0
   -2.8402    5.0798    4.4881 H   0  0  0  0  0  0  0  0  0  0  0  0
   -5.0613    1.4887    3.5611 H   0  0  0  0  0  0  0  0  0  0  0  0
   -0.7381    3.7490    4.6227 H   0  0  0  0  0  0  0  0  0  0  0  0
   -5.3148    4.1979    3.9489 C   0  0  0  0  0  0  0  0  0  0  0  0
   -6.4238    3.3816    3.6000 O   0  0  0  0  0  0  0  0  0  0  0  0
   -5.5018    4.6797    4.9491 H   0  0  0  0  0  0  0  0  0  0  0  0
   -5.1849    5.0070    3.1772 H   0  0  0  0  0  0  0  0  0  0  0  0
   -7.1885    3.9678    3.5684 H   0  0  0  0  0  0  0  0  0  0  0  0
  1  2  2  0  0  0  0
  1  3  1  0  0  0  0
  1 10  1  0  0  0  0
  2  6  1  0  0  0  0
  2 12  1  0  0  0  0
  3  4  2  0  0  0  0
  3  7  1  0  0  0  0
  4  5  1  0  0  0  0
  4  8  1  0  0  0  0
  5  6  2  0  0  0  0
  5 11  1  0  0  0  0
  6  9  1  0  0  0  0
 12 13  1  0  0  0  0
 12 14  1  0  0  0  0
 12 15  1  0  0  0  0
 13 16  1  0  0  0  0
M  END
