./000100-66-3.hin
 OpenBabel09241315583D

 16 16  0  0  0  0  0  0  0  0999 V2000
   -0.8303   -0.7129   -0.0000 C   0  0  0  0  0  0  0  0  0  0  0  0
   -0.9193    0.6798   -0.0000 C   0  0  0  0  0  0  0  0  0  0  0  0
    0.4112   -1.3436   -0.0000 C   0  0  0  0  0  0  0  0  0  0  0  0
    1.5813   -0.5798    0.0000 C   0  0  0  0  0  0  0  0  0  0  0  0
    1.5183    0.8085    0.0000 C   0  0  0  0  0  0  0  0  0  0  0  0
    0.2580    1.4366    0.0000 C   0  0  0  0  0  0  0  0  0  0  0  0
   -1.7525   -1.3129   -0.0000 H   0  0  0  0  0  0  0  0  0  0  0  0
   -1.9051    1.1637   -0.0000 H   0  0  0  0  0  0  0  0  0  0  0  0
    0.4724   -2.4410   -0.0000 H   0  0  0  0  0  0  0  0  0  0  0  0
    2.5618   -1.0791    0.0000 H   0  0  0  0  0  0  0  0  0  0  0  0
    2.4288    1.4235    0.0000 H   0  0  0  0  0  0  0  0  0  0  0  0
    0.3008    2.8183    0.0000 O   0  0  0  0  0  0  0  0  0  0  0  0
   -0.9558    3.4847   -0.0000 C   0  0  0  0  0  0  0  0  0  0  0  0
   -0.6758    4.5687   -0.0000 H   0  0  0  0  0  0  0  0  0  0  0  0
   -1.5388    3.2285   -0.9178 H   0  0  0  0  0  0  0  0  0  0  0  0
   -1.5388    3.2285    0.9178 H   0  0  0  0  0  0  0  0  0  0  0  0
  1  2  2  0  0  0  0
  1  3  1  0  0  0  0
  1  7  1  0  0  0  0
  2  6  1  0  0  0  0
  2  8  1  0  0  0  0
  3  4  2  0  0  0  0
  3  9  1  0  0  0  0
  4  5  1  0  0  0  0
  4 10  1  0  0  0  0
  5  6  2  0  0  0  0
  5 11  1  0  0  0  0
  6 12  1  0  0  0  0
 12 13  1  0  0  0  0
 13 14  1  0  0  0  0
 13 15  1  0  0  0  0
 13 16  1  0  0  0  0
M  END
