./000103-65-1.hin
 OpenBabel09241315583D

 21 21  0  0  0  0  0  0  0  0999 V2000
   -1.1229    1.2500    0.6411 C   0  0  0  0  0  0  0  0  0  0  0  0
   -1.0609    2.6415    0.6850 C   0  0  0  0  0  0  0  0  0  0  0  0
    0.1778    3.2940    0.7067 C   0  0  0  0  0  0  0  0  0  0  0  0
    1.3522    2.5330    0.6844 C   0  0  0  0  0  0  0  0  0  0  0  0
    1.2882    1.1411    0.6402 C   0  0  0  0  0  0  0  0  0  0  0  0
    0.0513    0.4972    0.6186 C   0  0  0  0  0  0  0  0  0  0  0  0
   -2.0998    0.7452    0.6250 H   0  0  0  0  0  0  0  0  0  0  0  0
    2.3299    3.0371    0.7023 H   0  0  0  0  0  0  0  0  0  0  0  0
    0.2416    4.7802    0.7574 C   0  0  0  0  0  0  0  0  0  0  0  0
    0.1024    5.3946   -0.6235 C   0  0  0  0  0  0  0  0  0  0  0  0
    0.1527    6.8992   -0.5609 C   0  0  0  0  0  0  0  0  0  0  0  0
   -1.9879    3.2336    0.7027 H   0  0  0  0  0  0  0  0  0  0  0  0
    2.2158    0.5506    0.6228 H   0  0  0  0  0  0  0  0  0  0  0  0
    0.0016   -0.6005    0.5846 H   0  0  0  0  0  0  0  0  0  0  0  0
   -0.5783    5.1691    1.4197 H   0  0  0  0  0  0  0  0  0  0  0  0
    1.2160    5.1056    1.2111 H   0  0  0  0  0  0  0  0  0  0  0  0
    0.9253    5.0151   -1.2848 H   0  0  0  0  0  0  0  0  0  0  0  0
   -0.8682    5.0654   -1.0799 H   0  0  0  0  0  0  0  0  0  0  0  0
    0.0530    7.3325   -1.5853 H   0  0  0  0  0  0  0  0  0  0  0  0
   -0.6772    7.2965    0.0723 H   0  0  0  0  0  0  0  0  0  0  0  0
    1.1212    7.2444   -0.1247 H   0  0  0  0  0  0  0  0  0  0  0  0
  1  2  2  0  0  0  0
  1  6  1  0  0  0  0
  1  7  1  0  0  0  0
  2  3  1  0  0  0  0
  2 12  1  0  0  0  0
  3  4  2  0  0  0  0
  3  9  1  0  0  0  0
  4  5  1  0  0  0  0
  4  8  1  0  0  0  0
  5  6  2  0  0  0  0
  5 13  1  0  0  0  0
  6 14  1  0  0  0  0
  9 10  1  0  0  0  0
  9 15  1  0  0  0  0
  9 16  1  0  0  0  0
 10 11  1  0  0  0  0
 10 17  1  0  0  0  0
 10 18  1  0  0  0  0
 11 19  1  0  0  0  0
 11 20  1  0  0  0  0
 11 21  1  0  0  0  0
M  END
