./000105-37-3.hin
 OpenBabel09241315583D

 17 16  0  0  0  0  0  0  0  0999 V2000
   -1.8546   -2.9989    1.5023 C   0  0  0  0  0  0  0  0  0  0  0  0
   -4.2120    2.5841    1.5023 C   0  0  0  0  0  0  0  0  0  0  0  0
   -4.2386    1.0782    1.5023 C   0  0  0  0  0  0  0  0  0  0  0  0
   -2.8565    0.5026    1.5023 C   0  0  0  0  0  0  0  0  0  0  0  0
   -5.2555    2.9810    1.5023 H   0  0  0  0  0  0  0  0  0  0  0  0
   -3.6789    2.9677    2.4058 H   0  0  0  0  0  0  0  0  0  0  0  0
   -3.6789    2.9677    0.5988 H   0  0  0  0  0  0  0  0  0  0  0  0
   -4.7786    0.6911    0.5971 H   0  0  0  0  0  0  0  0  0  0  0  0
   -4.7786    0.6911    2.4076 H   0  0  0  0  0  0  0  0  0  0  0  0
   -2.8625   -0.8659    1.5023 O   0  0  0  0  0  0  0  0  0  0  0  0
   -1.7679    1.0804    1.5023 O   0  0  0  0  0  0  0  0  0  0  0  0
   -1.5788   -1.5152    1.5023 C   0  0  0  0  0  0  0  0  0  0  0  0
   -0.8834   -3.5489    1.5023 H   0  0  0  0  0  0  0  0  0  0  0  0
   -2.4400   -3.2894    2.4071 H   0  0  0  0  0  0  0  0  0  0  0  0
   -2.4400   -3.2894    0.5975 H   0  0  0  0  0  0  0  0  0  0  0  0
   -1.0134   -1.1928    0.5893 H   0  0  0  0  0  0  0  0  0  0  0  0
   -1.0134   -1.1928    2.4154 H   0  0  0  0  0  0  0  0  0  0  0  0
  1 12  1  0  0  0  0
  1 13  1  0  0  0  0
  1 14  1  0  0  0  0
  1 15  1  0  0  0  0
  2  3  1  0  0  0  0
  2  5  1  0  0  0  0
  2  6  1  0  0  0  0
  2  7  1  0  0  0  0
  3  4  1  0  0  0  0
  3  8  1  0  0  0  0
  3  9  1  0  0  0  0
  4 10  1  0  0  0  0
  4 11  2  0  0  0  0
 10 12  1  0  0  0  0
 12 16  1  0  0  0  0
 12 17  1  0  0  0  0
M  END
