./000106-36-5.hin
 OpenBabel09241315583D

 20 19  0  0  0  0  0  0  0  0999 V2000
   -1.7745   -2.7859    1.5023 C   0  0  0  0  0  0  0  0  0  0  0  0
   -4.3282    2.7139    1.5023 C   0  0  0  0  0  0  0  0  0  0  0  0
   -4.2995    1.2080    1.5023 C   0  0  0  0  0  0  0  0  0  0  0  0
   -2.8971    0.6837    1.5023 C   0  0  0  0  0  0  0  0  0  0  0  0
   -5.3855    3.0722    1.5023 H   0  0  0  0  0  0  0  0  0  0  0  0
   -3.8095    3.1168    2.4058 H   0  0  0  0  0  0  0  0  0  0  0  0
   -3.8095    3.1168    0.5988 H   0  0  0  0  0  0  0  0  0  0  0  0
   -4.8249    0.8014    0.5971 H   0  0  0  0  0  0  0  0  0  0  0  0
   -4.8249    0.8014    2.4076 H   0  0  0  0  0  0  0  0  0  0  0  0
   -2.8535   -0.6844    1.5023 O   0  0  0  0  0  0  0  0  0  0  0  0
   -1.8305    1.3009    1.5023 O   0  0  0  0  0  0  0  0  0  0  0  0
   -1.5475   -1.2858    1.5023 C   0  0  0  0  0  0  0  0  0  0  0  0
   -0.4568   -3.5155    1.5023 C   0  0  0  0  0  0  0  0  0  0  0  0
   -2.3764   -3.0702    2.4047 H   0  0  0  0  0  0  0  0  0  0  0  0
   -2.3764   -3.0702    0.6000 H   0  0  0  0  0  0  0  0  0  0  0  0
   -0.9928   -0.9472    0.5890 H   0  0  0  0  0  0  0  0  0  0  0  0
   -0.9928   -0.9472    2.4156 H   0  0  0  0  0  0  0  0  0  0  0  0
   -0.6302   -4.6187    1.5023 H   0  0  0  0  0  0  0  0  0  0  0  0
    0.1420   -3.2520    0.5969 H   0  0  0  0  0  0  0  0  0  0  0  0
    0.1420   -3.2520    2.4077 H   0  0  0  0  0  0  0  0  0  0  0  0
  1 12  1  0  0  0  0
  1 13  1  0  0  0  0
  1 14  1  0  0  0  0
  1 15  1  0  0  0  0
  2  3  1  0  0  0  0
  2  5  1  0  0  0  0
  2  6  1  0  0  0  0
  2  7  1  0  0  0  0
  3  4  1  0  0  0  0
  3  8  1  0  0  0  0
  3  9  1  0  0  0  0
  4 10  1  0  0  0  0
  4 11  2  0  0  0  0
 10 12  1  0  0  0  0
 12 16  1  0  0  0  0
 12 17  1  0  0  0  0
 13 18  1  0  0  0  0
 13 19  1  0  0  0  0
 13 20  1  0  0  0  0
M  END
