./000106-42-3.hin
 OpenBabel09241315583D

 18 18  0  0  0  0  0  0  0  0999 V2000
   -2.9310    6.6128   44.5421 C   0  0  0  0  0  0  0  0  0  0  0  0
   -6.6350    7.3529   44.5421 C   0  0  0  0  0  0  0  0  0  0  0  0
   -5.4258    6.6628   44.5421 C   0  0  0  0  0  0  0  0  0  0  0  0
   -4.2105    7.3578   44.5421 C   0  0  0  0  0  0  0  0  0  0  0  0
   -4.2279    8.7572   44.5421 C   0  0  0  0  0  0  0  0  0  0  0  0
   -5.4371    9.4473   44.5421 C   0  0  0  0  0  0  0  0  0  0  0  0
   -6.6525    8.7522   44.5421 C   0  0  0  0  0  0  0  0  0  0  0  0
   -7.5829    6.7942   44.5421 H   0  0  0  0  0  0  0  0  0  0  0  0
   -5.4219    5.5627   44.5421 H   0  0  0  0  0  0  0  0  0  0  0  0
   -3.2800    9.3158   44.5421 H   0  0  0  0  0  0  0  0  0  0  0  0
   -5.4411   10.5474   44.5421 H   0  0  0  0  0  0  0  0  0  0  0  0
   -2.0553    7.3070   44.5421 H   0  0  0  0  0  0  0  0  0  0  0  0
   -2.8626    5.9596   45.4479 H   0  0  0  0  0  0  0  0  0  0  0  0
   -2.8626    5.9596   43.6363 H   0  0  0  0  0  0  0  0  0  0  0  0
   -7.9320    9.4973   44.5421 C   0  0  0  0  0  0  0  0  0  0  0  0
   -8.8076    8.8030   44.5421 H   0  0  0  0  0  0  0  0  0  0  0  0
   -8.0003   10.1504   45.4479 H   0  0  0  0  0  0  0  0  0  0  0  0
   -8.0003   10.1504   43.6363 H   0  0  0  0  0  0  0  0  0  0  0  0
  1  4  1  0  0  0  0
  1 12  1  0  0  0  0
  1 13  1  0  0  0  0
  1 14  1  0  0  0  0
  2  3  2  0  0  0  0
  2  7  1  0  0  0  0
  2  8  1  0  0  0  0
  3  4  1  0  0  0  0
  3  9  1  0  0  0  0
  4  5  2  0  0  0  0
  5  6  1  0  0  0  0
  5 10  1  0  0  0  0
  6  7  2  0  0  0  0
  6 11  1  0  0  0  0
  7 15  1  0  0  0  0
 15 16  1  0  0  0  0
 15 17  1  0  0  0  0
 15 18  1  0  0  0  0
M  END
