./000106-44-5.hin
 OpenBabel09241315583D

 16 16  0  0  0  0  0  0  0  0999 V2000
    2.8031    3.3377   -0.3051 O   0  0  0  0  0  0  0  0  0  0  0  0
    2.0565    2.7217   -0.3051 H   0  0  0  0  0  0  0  0  0  0  0  0
    3.9650    1.1937   -0.3051 C   0  0  0  0  0  0  0  0  0  0  0  0
    5.1805    0.5160   -0.3051 C   0  0  0  0  0  0  0  0  0  0  0  0
    6.3915    1.2180   -0.3051 C   0  0  0  0  0  0  0  0  0  0  0  0
    6.3715    2.6185   -0.3051 C   0  0  0  0  0  0  0  0  0  0  0  0
    5.1685    3.3159   -0.3051 C   0  0  0  0  0  0  0  0  0  0  0  0
    3.9630    2.5957   -0.3051 C   0  0  0  0  0  0  0  0  0  0  0  0
    3.0173    0.6376   -0.3051 H   0  0  0  0  0  0  0  0  0  0  0  0
    5.1904   -0.5844   -0.3051 H   0  0  0  0  0  0  0  0  0  0  0  0
    7.6740    0.4781   -0.3051 C   0  0  0  0  0  0  0  0  0  0  0  0
    8.5465    1.1763   -0.3051 H   0  0  0  0  0  0  0  0  0  0  0  0
    7.7460   -0.1746    0.6008 H   0  0  0  0  0  0  0  0  0  0  0  0
    7.7460   -0.1746   -1.2109 H   0  0  0  0  0  0  0  0  0  0  0  0
    7.3199    3.1776   -0.3051 H   0  0  0  0  0  0  0  0  0  0  0  0
    5.1446    4.4144   -0.3051 H   0  0  0  0  0  0  0  0  0  0  0  0
  1  2  1  0  0  0  0
  1  8  1  0  0  0  0
  3  4  2  0  0  0  0
  3  8  1  0  0  0  0
  3  9  1  0  0  0  0
  4  5  1  0  0  0  0
  4 10  1  0  0  0  0
  5  6  2  0  0  0  0
  5 11  1  0  0  0  0
  6  7  1  0  0  0  0
  6 15  1  0  0  0  0
  7  8  2  0  0  0  0
  7 16  1  0  0  0  0
 11 12  1  0  0  0  0
 11 13  1  0  0  0  0
 11 14  1  0  0  0  0
M  END
