./000106-47-8.hin
 OpenBabel09241315583D

 14 14  0  0  0  0  0  0  0  0999 V2000
    4.0194    1.4067    6.0462 C   0  0  0  0  0  0  0  0  0  0  0  0
    4.0122    2.7944    6.0462 C   0  0  0  0  0  0  0  0  0  0  0  0
    5.2305    3.5212    6.0462 C   0  0  0  0  0  0  0  0  0  0  0  0
    6.4488    2.7944    6.0462 C   0  0  0  0  0  0  0  0  0  0  0  0
    6.4416    1.4067    6.0462 C   0  0  0  0  0  0  0  0  0  0  0  0
    5.2305    0.7095    6.0462 C   0  0  0  0  0  0  0  0  0  0  0  0
    7.4105    3.3278    6.0462 H   0  0  0  0  0  0  0  0  0  0  0  0
    7.3961    0.8577    6.0462 H   0  0  0  0  0  0  0  0  0  0  0  0
    5.2305    4.8979    6.0462 N   0  0  0  0  0  0  0  0  0  0  0  0
    6.0829    5.3916    6.0462 H   0  0  0  0  0  0  0  0  0  0  0  0
    4.3781    5.3916    6.0462 H   0  0  0  0  0  0  0  0  0  0  0  0
    3.0505    3.3278    6.0462 H   0  0  0  0  0  0  0  0  0  0  0  0
    5.2305   -0.9921    6.0462 Cl  0  0  0  0  0  0  0  0  0  0  0  0
    3.0649    0.8577    6.0462 H   0  0  0  0  0  0  0  0  0  0  0  0
  1  2  2  0  0  0  0
  1  6  1  0  0  0  0
  1 14  1  0  0  0  0
  2  3  1  0  0  0  0
  2 12  1  0  0  0  0
  3  4  2  0  0  0  0
  3  9  1  0  0  0  0
  4  5  1  0  0  0  0
  4  7  1  0  0  0  0
  5  6  2  0  0  0  0
  5  8  1  0  0  0  0
  6 13  1  0  0  0  0
  9 10  1  0  0  0  0
  9 11  1  0  0  0  0
M  END
