./000107-03-9.hin
 OpenBabel09241315583D

 12 11  0  0  0  0  0  0  0  0999 V2000
   -8.6253    6.5710   -9.3724 C   0  0  0  0  0  0  0  0  0  0  0  0
  -11.0395    8.1972   -7.7761 S   0  0  0  0  0  0  0  0  0  0  0  0
  -10.1126    8.5862   -9.2328 C   0  0  0  0  0  0  0  0  0  0  0  0
  -10.2425    8.7177   -6.8603 H   0  0  0  0  0  0  0  0  0  0  0  0
  -10.7022    8.1236  -10.0648 H   0  0  0  0  0  0  0  0  0  0  0  0
  -10.1089    9.6933   -9.3850 H   0  0  0  0  0  0  0  0  0  0  0  0
   -8.6960    8.0711   -9.2427 C   0  0  0  0  0  0  0  0  0  0  0  0
   -8.1482    8.5436  -10.1032 H   0  0  0  0  0  0  0  0  0  0  0  0
   -8.1706    8.3938   -8.3045 H   0  0  0  0  0  0  0  0  0  0  0  0
   -7.5645    6.2282   -9.3110 H   0  0  0  0  0  0  0  0  0  0  0  0
   -9.2086    6.0800   -8.5551 H   0  0  0  0  0  0  0  0  0  0  0  0
   -9.0475    6.2403  -10.3521 H   0  0  0  0  0  0  0  0  0  0  0  0
  1  7  1  0  0  0  0
  1 10  1  0  0  0  0
  1 11  1  0  0  0  0
  1 12  1  0  0  0  0
  2  3  1  0  0  0  0
  2  4  1  0  0  0  0
  3  5  1  0  0  0  0
  3  6  1  0  0  0  0
  3  7  1  0  0  0  0
  7  8  1  0  0  0  0
  7  9  1  0  0  0  0
M  END
