./000107-12-0.hin
 OpenBabel09241315583D

  9  8  0  0  0  0  0  0  0  0999 V2000
   -0.9309   -1.0091   -0.0206 C   0  0  0  0  0  0  0  0  0  0  0  0
   -0.9570    0.5017   -0.0206 C   0  0  0  0  0  0  0  0  0  0  0  0
   -2.3078    1.0187   -0.0206 C   0  0  0  0  0  0  0  0  0  0  0  0
    0.1279   -1.3645   -0.0206 H   0  0  0  0  0  0  0  0  0  0  0  0
   -1.4424   -1.4149    0.8852 H   0  0  0  0  0  0  0  0  0  0  0  0
   -1.4424   -1.4149   -0.9264 H   0  0  0  0  0  0  0  0  0  0  0  0
   -0.4197    0.8948   -0.9285 H   0  0  0  0  0  0  0  0  0  0  0  0
   -0.4197    0.8948    0.8873 H   0  0  0  0  0  0  0  0  0  0  0  0
   -3.3921    1.4393   -0.0206 N   0  0  0  0  0  0  0  0  0  0  0  0
  1  2  1  0  0  0  0
  1  4  1  0  0  0  0
  1  5  1  0  0  0  0
  1  6  1  0  0  0  0
  2  3  1  0  0  0  0
  2  7  1  0  0  0  0
  2  8  1  0  0  0  0
  3  9  3  0  0  0  0
M  END
