./000107-13-1.hin
 OpenBabel09241315583D

  7  6  0  0  0  0  0  0  0  0999 V2000
  -37.4522    0.1935   46.5247 C   0  0  0  0  0  0  0  0  0  0  0  0
  -37.4043    1.6121   46.5247 C   0  0  0  0  0  0  0  0  0  0  0  0
  -37.3473    2.7747   46.5247 N   0  0  0  0  0  0  0  0  0  0  0  0
  -36.4627   -0.2990   46.5247 H   0  0  0  0  0  0  0  0  0  0  0  0
  -38.5914   -0.5010   46.5247 C   0  0  0  0  0  0  0  0  0  0  0  0
  -38.5939   -1.5998   46.5247 H   0  0  0  0  0  0  0  0  0  0  0  0
  -39.5833   -0.0289   46.5247 H   0  0  0  0  0  0  0  0  0  0  0  0
  1  2  1  0  0  0  0
  1  4  1  0  0  0  0
  1  5  2  0  0  0  0
  2  3  3  0  0  0  0
  5  6  1  0  0  0  0
  5  7  1  0  0  0  0
M  END
