./000107-21-1.hin
 OpenBabel09241315583D

 10  9  0  0  0  0  0  0  0  0999 V2000
   -1.6985   -0.5675    0.2762 C   0  0  0  0  0  0  0  0  0  0  0  0
   -1.6698    0.9585    0.2760 C   0  0  0  0  0  0  0  0  0  0  0  0
   -3.0224    1.3849    0.3301 O   0  0  0  0  0  0  0  0  0  0  0  0
   -0.6523   -0.9708    0.2398 H   0  0  0  0  0  0  0  0  0  0  0  0
   -2.2230   -0.9393    1.1963 H   0  0  0  0  0  0  0  0  0  0  0  0
   -2.3304   -1.0729   -0.8808 O   0  0  0  0  0  0  0  0  0  0  0  0
   -1.1105    1.3371    1.1714 H   0  0  0  0  0  0  0  0  0  0  0  0
   -1.1828    1.3399   -0.6602 H   0  0  0  0  0  0  0  0  0  0  0  0
   -3.0166    2.3453    0.2516 H   0  0  0  0  0  0  0  0  0  0  0  0
   -3.2138   -0.6826   -0.9111 H   0  0  0  0  0  0  0  0  0  0  0  0
  1  2  1  0  0  0  0
  1  4  1  0  0  0  0
  1  5  1  0  0  0  0
  1  6  1  0  0  0  0
  2  3  1  0  0  0  0
  2  7  1  0  0  0  0
  2  8  1  0  0  0  0
  3  9  1  0  0  0  0
  6 10  1  0  0  0  0
M  END
