./000107-22-2.hin
 OpenBabel09241315583D

  6  5  0  0  0  0  0  0  0  0999 V2000
    1.8293    6.9930   -1.3388 C   0  0  0  0  0  0  0  0  0  0  0  0
    1.8519    8.2087   -1.5153 O   0  0  0  0  0  0  0  0  0  0  0  0
    2.7459    6.3868   -1.1721 H   0  0  0  0  0  0  0  0  0  0  0  0
    0.5271    6.2316   -1.3374 C   0  0  0  0  0  0  0  0  0  0  0  0
   -0.3894    6.8378   -1.5048 H   0  0  0  0  0  0  0  0  0  0  0  0
    0.5044    5.0161   -1.1601 O   0  0  0  0  0  0  0  0  0  0  0  0
  1  2  2  0  0  0  0
  1  3  1  0  0  0  0
  1  4  1  0  0  0  0
  4  5  1  0  0  0  0
  4  6  2  0  0  0  0
M  END
