./000107-92-6.hin
 OpenBabel09241315583D

 14 13  0  0  0  0  0  0  0  0999 V2000
    0.1427   -0.7347   -0.0000 C   0  0  0  0  0  0  0  0  0  0  0  0
    0.0686    0.7565    0.0000 C   0  0  0  0  0  0  0  0  0  0  0  0
   -1.3455    1.2937   -0.0000 C   0  0  0  0  0  0  0  0  0  0  0  0
    1.1535   -1.4451   -0.0000 O   0  0  0  0  0  0  0  0  0  0  0  0
   -1.0537   -1.3886    0.0000 O   0  0  0  0  0  0  0  0  0  0  0  0
    0.6241    1.1210    0.9065 H   0  0  0  0  0  0  0  0  0  0  0  0
    0.6241    1.1210   -0.9064 H   0  0  0  0  0  0  0  0  0  0  0  0
   -1.3528    2.8002    0.0000 C   0  0  0  0  0  0  0  0  0  0  0  0
   -1.8909    0.9058   -0.9009 H   0  0  0  0  0  0  0  0  0  0  0  0
   -1.8909    0.9058    0.9008 H   0  0  0  0  0  0  0  0  0  0  0  0
   -0.8987   -2.3478   -0.0000 H   0  0  0  0  0  0  0  0  0  0  0  0
   -2.4036    3.1785   -0.0000 H   0  0  0  0  0  0  0  0  0  0  0  0
   -0.8344    3.1993    0.9054 H   0  0  0  0  0  0  0  0  0  0  0  0
   -0.8344    3.1993   -0.9054 H   0  0  0  0  0  0  0  0  0  0  0  0
  1  2  1  0  0  0  0
  1  4  2  0  0  0  0
  1  5  1  0  0  0  0
  2  3  1  0  0  0  0
  2  6  1  0  0  0  0
  2  7  1  0  0  0  0
  3  8  1  0  0  0  0
  3  9  1  0  0  0  0
  3 10  1  0  0  0  0
  5 11  1  0  0  0  0
  8 12  1  0  0  0  0
  8 13  1  0  0  0  0
  8 14  1  0  0  0  0
M  END
