./000108-10-1.hin
 OpenBabel09241315583D

 19 18  0  0  0  0  0  0  0  0999 V2000
   -2.6367   -0.5453    0.1213 C   0  0  0  0  0  0  0  0  0  0  0  0
   -2.6950    0.9689   -0.0059 C   0  0  0  0  0  0  0  0  0  0  0  0
   -4.0838    1.4977   -0.2285 C   0  0  0  0  0  0  0  0  0  0  0  0
   -4.2726    2.9365    0.1370 C   0  0  0  0  0  0  0  0  0  0  0  0
   -1.2092   -1.0263   -0.0303 C   0  0  0  0  0  0  0  0  0  0  0  0
   -3.2131   -0.9986    1.4461 C   0  0  0  0  0  0  0  0  0  0  0  0
   -2.2612    1.4442    0.9129 H   0  0  0  0  0  0  0  0  0  0  0  0
   -2.0705    1.2952   -0.8817 H   0  0  0  0  0  0  0  0  0  0  0  0
   -5.2492    3.3192   -0.2469 H   0  0  0  0  0  0  0  0  0  0  0  0
   -4.2588    3.0402    1.2498 H   0  0  0  0  0  0  0  0  0  0  0  0
   -3.4447    3.5527   -0.2891 H   0  0  0  0  0  0  0  0  0  0  0  0
   -5.0025    0.8151   -0.6926 O   0  0  0  0  0  0  0  0  0  0  0  0
   -3.2610   -0.9892   -0.7069 H   0  0  0  0  0  0  0  0  0  0  0  0
   -1.1656   -2.1374    0.0715 H   0  0  0  0  0  0  0  0  0  0  0  0
   -0.8052   -0.7463   -1.0328 H   0  0  0  0  0  0  0  0  0  0  0  0
   -0.5559   -0.5738    0.7542 H   0  0  0  0  0  0  0  0  0  0  0  0
   -3.2014   -2.1132    1.5100 H   0  0  0  0  0  0  0  0  0  0  0  0
   -2.6189   -0.5896    2.2984 H   0  0  0  0  0  0  0  0  0  0  0  0
   -4.2692   -0.6473    1.5426 H   0  0  0  0  0  0  0  0  0  0  0  0
  1  2  1  0  0  0  0
  1  5  1  0  0  0  0
  1  6  1  0  0  0  0
  1 13  1  0  0  0  0
  2  3  1  0  0  0  0
  2  7  1  0  0  0  0
  2  8  1  0  0  0  0
  3  4  1  0  0  0  0
  3 12  2  0  0  0  0
  4  9  1  0  0  0  0
  4 10  1  0  0  0  0
  4 11  1  0  0  0  0
  5 14  1  0  0  0  0
  5 15  1  0  0  0  0
  5 16  1  0  0  0  0
  6 17  1  0  0  0  0
  6 18  1  0  0  0  0
  6 19  1  0  0  0  0
M  END
