./000108-11-2.hin
 OpenBabel09241315583D

 21 20  0  0  1  0  0  0  0  0999 V2000
  -44.7277    3.2891   47.8352 O   0  0  0  0  0  0  0  0  0  0  0  0
  -41.5225    5.5495   46.5378 C   0  0  0  0  0  0  0  0  0  0  0  0
  -44.5550    3.2140   46.4226 C   0  0  1  0  0  0  0  0  0  0  0  0
  -42.9848    5.1996   46.3496 C   0  0  0  0  0  0  0  0  0  0  0  0
  -43.1401    3.7027   46.1269 C   0  0  0  0  0  0  0  0  0  0  0  0
  -42.8875    3.4457   45.0661 H   0  0  0  0  0  0  0  0  0  0  0  0
  -43.5418    5.4686   47.2926 H   0  0  0  0  0  0  0  0  0  0  0  0
  -41.4045    6.6500   46.6848 H   0  0  0  0  0  0  0  0  0  0  0  0
  -41.1082    5.0259   47.4327 H   0  0  0  0  0  0  0  0  0  0  0  0
  -40.9280    5.2463   45.6426 H   0  0  0  0  0  0  0  0  0  0  0  0
  -45.5981    2.9226   48.0278 H   0  0  0  0  0  0  0  0  0  0  0  0
  -44.7546    1.7916   45.9295 C   0  0  0  0  0  0  0  0  0  0  0  0
  -45.7868    1.4397   46.1687 H   0  0  0  0  0  0  0  0  0  0  0  0
  -44.6072    1.7442   44.8249 H   0  0  0  0  0  0  0  0  0  0  0  0
  -44.0242    1.1059   46.4216 H   0  0  0  0  0  0  0  0  0  0  0  0
  -43.5653    5.9947   45.1989 C   0  0  0  0  0  0  0  0  0  0  0  0
  -45.3089    3.8927   45.9297 H   0  0  0  0  0  0  0  0  0  0  0  0
  -42.4288    3.1519   46.7973 H   0  0  0  0  0  0  0  0  0  0  0  0
  -43.4647    7.0890   45.3974 H   0  0  0  0  0  0  0  0  0  0  0  0
  -43.0302    5.7587   44.2474 H   0  0  0  0  0  0  0  0  0  0  0  0
  -44.6481    5.7594   45.0630 H   0  0  0  0  0  0  0  0  0  0  0  0
  1  3  1  0  0  0  0
  1 11  1  0  0  0  0
  2  4  1  0  0  0  0
  2  8  1  0  0  0  0
  2  9  1  0  0  0  0
  2 10  1  0  0  0  0
  3  5  1  0  0  0  0
  3 12  1  0  0  0  0
  3 17  1  6  0  0  0
  4  5  1  0  0  0  0
  4  7  1  0  0  0  0
  4 16  1  0  0  0  0
  5  6  1  0  0  0  0
  5 18  1  0  0  0  0
 12 13  1  0  0  0  0
 12 14  1  0  0  0  0
 12 15  1  0  0  0  0
 16 19  1  0  0  0  0
 16 20  1  0  0  0  0
 16 21  1  0  0  0  0
M  END
