./000108-21-4.hin
 OpenBabel09241315583D

 17 16  0  0  0  0  0  0  0  0999 V2000
   -0.8733   -2.0833    0.6118 C   0  0  0  0  0  0  0  0  0  0  0  0
   -0.4787   -0.6475    0.6715 C   0  0  0  0  0  0  0  0  0  0  0  0
   -1.4484    0.1850    0.1890 O   0  0  0  0  0  0  0  0  0  0  0  0
   -2.5480    2.2683    0.1916 C   0  0  0  0  0  0  0  0  0  0  0  0
   -1.1839    1.6058    0.1987 C   0  0  0  0  0  0  0  0  0  0  0  0
   -0.3642    1.9765   -1.0204 C   0  0  0  0  0  0  0  0  0  0  0  0
    0.5737   -0.1618    1.0916 O   0  0  0  0  0  0  0  0  0  0  0  0
   -0.0580   -2.7094    1.0475 H   0  0  0  0  0  0  0  0  0  0  0  0
   -1.8177   -2.2389    1.1880 H   0  0  0  0  0  0  0  0  0  0  0  0
   -1.0488   -2.3793   -0.4510 H   0  0  0  0  0  0  0  0  0  0  0  0
   -3.1331    1.9597    1.0901 H   0  0  0  0  0  0  0  0  0  0  0  0
   -2.4156    3.3761    0.2011 H   0  0  0  0  0  0  0  0  0  0  0  0
   -3.1197    1.9755   -0.7210 H   0  0  0  0  0  0  0  0  0  0  0  0
   -0.6200    1.8639    1.1386 H   0  0  0  0  0  0  0  0  0  0  0  0
    0.6266    1.4625   -0.9796 H   0  0  0  0  0  0  0  0  0  0  0  0
   -0.8906    1.6693   -1.9552 H   0  0  0  0  0  0  0  0  0  0  0  0
   -0.2018    3.0800   -1.0409 H   0  0  0  0  0  0  0  0  0  0  0  0
  1  2  1  0  0  0  0
  1  8  1  0  0  0  0
  1  9  1  0  0  0  0
  1 10  1  0  0  0  0
  2  3  1  0  0  0  0
  2  7  2  0  0  0  0
  3  5  1  0  0  0  0
  4  5  1  0  0  0  0
  4 11  1  0  0  0  0
  4 12  1  0  0  0  0
  4 13  1  0  0  0  0
  5  6  1  0  0  0  0
  5 14  1  0  0  0  0
  6 15  1  0  0  0  0
  6 16  1  0  0  0  0
  6 17  1  0  0  0  0
M  END
