./000108-83-8.hin
 OpenBabel09241315583D

 28 27  0  0  0  0  0  0  0  0999 V2000
   -1.4978  -15.5748   22.1847 C   0  0  0  0  0  0  0  0  0  0  0  0
   -0.0315  -15.9216   22.3340 C   0  0  0  0  0  0  0  0  0  0  0  0
    0.3770  -15.5006   23.2840 H   0  0  0  0  0  0  0  0  0  0  0  0
    0.1007  -17.0303   22.3522 H   0  0  0  0  0  0  0  0  0  0  0  0
   -2.0733  -16.2201   20.9415 C   0  0  0  0  0  0  0  0  0  0  0  0
    0.5592  -15.5096   21.4806 H   0  0  0  0  0  0  0  0  0  0  0  0
   -3.1574  -15.9661   20.8488 H   0  0  0  0  0  0  0  0  0  0  0  0
   -1.5405  -15.8648   20.0269 H   0  0  0  0  0  0  0  0  0  0  0  0
   -1.9709  -17.3302   21.0012 H   0  0  0  0  0  0  0  0  0  0  0  0
   -2.0589  -15.9707   23.0795 H   0  0  0  0  0  0  0  0  0  0  0  0
   -1.6766  -14.0653   22.1454 C   0  0  0  0  0  0  0  0  0  0  0  0
   -3.9811  -14.3773   22.7827 O   0  0  0  0  0  0  0  0  0  0  0  0
   -3.0919  -13.6170   22.3887 C   0  0  0  0  0  0  0  0  0  0  0  0
   -4.7781  -11.7380   22.1847 C   0  0  0  0  0  0  0  0  0  0  0  0
   -4.8928  -10.2356   22.3340 C   0  0  0  0  0  0  0  0  0  0  0  0
   -4.4133   -9.8974   23.2839 H   0  0  0  0  0  0  0  0  0  0  0  0
   -4.3940   -9.7161   21.4806 H   0  0  0  0  0  0  0  0  0  0  0  0
   -5.5051  -12.2062   20.9415 C   0  0  0  0  0  0  0  0  0  0  0  0
   -5.9674   -9.9327   22.3522 H   0  0  0  0  0  0  0  0  0  0  0  0
   -5.4226  -13.3166   20.8489 H   0  0  0  0  0  0  0  0  0  0  0  0
   -6.5858  -11.9325   21.0013 H   0  0  0  0  0  0  0  0  0  0  0  0
   -5.0712  -11.7352   20.0269 H   0  0  0  0  0  0  0  0  0  0  0  0
   -5.2564  -12.2307   23.0795 H   0  0  0  0  0  0  0  0  0  0  0  0
   -3.3147  -12.1492   22.1454 C   0  0  0  0  0  0  0  0  0  0  0  0
   -1.0339  -13.5904   22.9354 H   0  0  0  0  0  0  0  0  0  0  0  0
   -1.3351  -13.6710   21.1520 H   0  0  0  0  0  0  0  0  0  0  0  0
   -2.8722  -11.8732   21.1519 H   0  0  0  0  0  0  0  0  0  0  0  0
   -2.7457  -11.5881   22.9353 H   0  0  0  0  0  0  0  0  0  0  0  0
  1  2  1  0  0  0  0
  1  5  1  0  0  0  0
  1 10  1  0  0  0  0
  1 11  1  0  0  0  0
  2  3  1  0  0  0  0
  2  4  1  0  0  0  0
  2  6  1  0  0  0  0
  5  7  1  0  0  0  0
  5  8  1  0  0  0  0
  5  9  1  0  0  0  0
 11 13  1  0  0  0  0
 11 25  1  0  0  0  0
 11 26  1  0  0  0  0
 12 13  2  0  0  0  0
 13 24  1  0  0  0  0
 14 15  1  0  0  0  0
 14 18  1  0  0  0  0
 14 23  1  0  0  0  0
 14 24  1  0  0  0  0
 15 16  1  0  0  0  0
 15 17  1  0  0  0  0
 15 19  1  0  0  0  0
 18 20  1  0  0  0  0
 18 21  1  0  0  0  0
 18 22  1  0  0  0  0
 24 27  1  0  0  0  0
 24 28  1  0  0  0  0
M  END
