./000108-86-1.hin
 OpenBabel09241315583D

 12 12  0  0  0  0  0  0  0  0999 V2000
   -2.0150   -0.9857   -0.0000 C   0  0  0  0  0  0  0  0  0  0  0  0
   -2.0133    0.4090   -0.0000 C   0  0  0  0  0  0  0  0  0  0  0  0
   -0.8076    1.1095   -0.0000 C   0  0  0  0  0  0  0  0  0  0  0  0
    0.4032    0.4105   -0.0000 C   0  0  0  0  0  0  0  0  0  0  0  0
    0.4032   -0.9876   -0.0000 C   0  0  0  0  0  0  0  0  0  0  0  0
   -0.8064   -1.6815   -0.0000 C   0  0  0  0  0  0  0  0  0  0  0  0
   -2.9676   -1.5357   -0.0000 H   0  0  0  0  0  0  0  0  0  0  0  0
   -2.9645    0.9617   -0.0000 H   0  0  0  0  0  0  0  0  0  0  0  0
   -0.8166    2.2106   -0.0000 H   0  0  0  0  0  0  0  0  0  0  0  0
    2.0257    1.3472   -0.0000 Br  0  0  0  0  0  0  0  0  0  0  0  0
    1.3522   -1.5460   -0.0000 H   0  0  0  0  0  0  0  0  0  0  0  0
   -0.8033   -2.7816   -0.0000 H   0  0  0  0  0  0  0  0  0  0  0  0
  1  2  2  0  0  0  0
  1  6  1  0  0  0  0
  1  7  1  0  0  0  0
  2  3  1  0  0  0  0
  2  8  1  0  0  0  0
  3  4  2  0  0  0  0
  3  9  1  0  0  0  0
  4  5  1  0  0  0  0
  4 10  1  0  0  0  0
  5  6  2  0  0  0  0
  5 11  1  0  0  0  0
  6 12  1  0  0  0  0
M  END
