./000108-90-7.hin
 OpenBabel09241315583D

 12 12  0  0  0  0  0  0  0  0999 V2000
   -1.1457   -0.6159    0.0000 C   0  0  0  0  0  0  0  0  0  0  0  0
   -1.1529    0.7784    0.0000 C   0  0  0  0  0  0  0  0  0  0  0  0
    0.0623   -1.3134    0.0000 C   0  0  0  0  0  0  0  0  0  0  0  0
    1.2702   -0.6159   -0.0000 C   0  0  0  0  0  0  0  0  0  0  0  0
    1.2774    0.7784   -0.0000 C   0  0  0  0  0  0  0  0  0  0  0  0
    0.0623    1.4707    0.0000 C   0  0  0  0  0  0  0  0  0  0  0  0
   -2.0991   -1.1649    0.0000 H   0  0  0  0  0  0  0  0  0  0  0  0
   -2.1062    1.3277   -0.0000 H   0  0  0  0  0  0  0  0  0  0  0  0
    0.0623   -2.4133   -0.0000 H   0  0  0  0  0  0  0  0  0  0  0  0
    2.2236   -1.1649   -0.0000 H   0  0  0  0  0  0  0  0  0  0  0  0
    2.2307    1.3277   -0.0000 H   0  0  0  0  0  0  0  0  0  0  0  0
    0.0623    3.1718    0.0000 Cl  0  0  0  0  0  0  0  0  0  0  0  0
  1  2  2  0  0  0  0
  1  3  1  0  0  0  0
  1  7  1  0  0  0  0
  2  6  1  0  0  0  0
  2  8  1  0  0  0  0
  3  4  2  0  0  0  0
  3  9  1  0  0  0  0
  4  5  1  0  0  0  0
  4 10  1  0  0  0  0
  5  6  2  0  0  0  0
  5 11  1  0  0  0  0
  6 12  1  0  0  0  0
M  END
