./000109-79-5.hin
 OpenBabel09241315583D

 15 14  0  0  0  0  0  0  0  0999 V2000
   -5.9838    9.6098   -7.9353 S   0  0  0  0  0  0  0  0  0  0  0  0
   -5.1731   13.4113   -9.2387 C   0  0  0  0  0  0  0  0  0  0  0  0
   -5.8689   11.3726   -7.9838 C   0  0  0  0  0  0  0  0  0  0  0  0
   -6.9323   11.7222   -7.9582 H   0  0  0  0  0  0  0  0  0  0  0  0
   -5.1719   11.8959   -9.2125 C   0  0  0  0  0  0  0  0  0  0  0  0
   -4.1126   11.5249   -9.2359 H   0  0  0  0  0  0  0  0  0  0  0  0
   -5.6810   11.5051  -10.1334 H   0  0  0  0  0  0  0  0  0  0  0  0
   -4.4713   13.9400  -10.4627 C   0  0  0  0  0  0  0  0  0  0  0  0
   -6.2315   13.7836   -9.2199 H   0  0  0  0  0  0  0  0  0  0  0  0
   -4.6686   13.8021   -8.3157 H   0  0  0  0  0  0  0  0  0  0  0  0
   -4.4852   15.0567  -10.4648 H   0  0  0  0  0  0  0  0  0  0  0  0
   -3.4075   13.6004  -10.4857 H   0  0  0  0  0  0  0  0  0  0  0  0
   -4.9740   13.5791  -11.3925 H   0  0  0  0  0  0  0  0  0  0  0  0
   -4.7023    9.3013   -8.0217 H   0  0  0  0  0  0  0  0  0  0  0  0
   -5.3608   11.7512   -7.0637 H   0  0  0  0  0  0  0  0  0  0  0  0
  1  3  1  0  0  0  0
  1 14  1  0  0  0  0
  2  5  1  0  0  0  0
  2  8  1  0  0  0  0
  2  9  1  0  0  0  0
  2 10  1  0  0  0  0
  3  4  1  0  0  0  0
  3  5  1  0  0  0  0
  3 15  1  0  0  0  0
  5  6  1  0  0  0  0
  5  7  1  0  0  0  0
  8 11  1  0  0  0  0
  8 12  1  0  0  0  0
  8 13  1  0  0  0  0
M  END
