./000109-86-4.hin
 OpenBabel09241315583D

 13 12  0  0  0  0  0  0  0  0999 V2000
   -1.8099   -2.2382    2.5950 C   0  0  0  0  0  0  0  0  0  0  0  0
   -3.3113   -0.4118    2.7145 C   0  0  0  0  0  0  0  0  0  0  0  0
   -3.2858    1.1121    2.7682 C   0  0  0  0  0  0  0  0  0  0  0  0
   -2.7539    1.6659    1.5832 O   0  0  0  0  0  0  0  0  0  0  0  0
   -3.8253   -0.8310    3.6182 H   0  0  0  0  0  0  0  0  0  0  0  0
   -3.8288   -0.7690    1.7856 H   0  0  0  0  0  0  0  0  0  0  0  0
   -1.9479   -0.8316    2.6961 O   0  0  0  0  0  0  0  0  0  0  0  0
   -4.3338    1.5081    2.8318 H   0  0  0  0  0  0  0  0  0  0  0  0
   -2.6903    1.4546    3.6558 H   0  0  0  0  0  0  0  0  0  0  0  0
   -0.7048   -2.4115    2.5960 H   0  0  0  0  0  0  0  0  0  0  0  0
   -2.2874   -2.7440    3.4704 H   0  0  0  0  0  0  0  0  0  0  0  0
   -2.2654   -2.6116    1.6446 H   0  0  0  0  0  0  0  0  0  0  0  0
   -1.8729    1.2869    1.4670 H   0  0  0  0  0  0  0  0  0  0  0  0
  1  7  1  0  0  0  0
  1 10  1  0  0  0  0
  1 11  1  0  0  0  0
  1 12  1  0  0  0  0
  2  3  1  0  0  0  0
  2  5  1  0  0  0  0
  2  6  1  0  0  0  0
  2  7  1  0  0  0  0
  3  4  1  0  0  0  0
  3  8  1  0  0  0  0
  3  9  1  0  0  0  0
  4 13  1  0  0  0  0
M  END
