./000109-94-4.hin
 OpenBabel09241315583D

 11 10  0  0  0  0  0  0  0  0999 V2000
   -1.6927    2.5269   30.2661 C   0  0  0  0  0  0  0  0  0  0  0  0
   -1.4667    3.7330   30.2661 O   0  0  0  0  0  0  0  0  0  0  0  0
   -0.5603    1.7538   30.2661 O   0  0  0  0  0  0  0  0  0  0  0  0
   -0.7857    0.3366   30.2661 C   0  0  0  0  0  0  0  0  0  0  0  0
    0.5761   -0.3156   30.2661 C   0  0  0  0  0  0  0  0  0  0  0  0
   -1.3711    0.0579   31.1817 H   0  0  0  0  0  0  0  0  0  0  0  0
   -1.3711    0.0579   29.3504 H   0  0  0  0  0  0  0  0  0  0  0  0
   -2.6758    2.0227   30.2661 H   0  0  0  0  0  0  0  0  0  0  0  0
    0.4522   -1.4245   30.2661 H   0  0  0  0  0  0  0  0  0  0  0  0
    1.1542   -0.0093   29.3615 H   0  0  0  0  0  0  0  0  0  0  0  0
    1.1542   -0.0093   31.1706 H   0  0  0  0  0  0  0  0  0  0  0  0
  1  2  2  0  0  0  0
  1  3  1  0  0  0  0
  1  8  1  0  0  0  0
  3  4  1  0  0  0  0
  4  5  1  0  0  0  0
  4  6  1  0  0  0  0
  4  7  1  0  0  0  0
  5  9  1  0  0  0  0
  5 10  1  0  0  0  0
  5 11  1  0  0  0  0
M  END
