./000110-13-4.hin
 OpenBabel09241315583D

 18 17  0  0  0  0  0  0  0  0999 V2000
   -5.3233    2.2702   -3.7382 C   0  0  0  0  0  0  0  0  0  0  0  0
   -5.3006    3.7245   -4.0819 C   0  0  0  0  0  0  0  0  0  0  0  0
   -6.1219    4.2701   -3.5571 H   0  0  0  0  0  0  0  0  0  0  0  0
   -5.4384    3.8423   -5.1855 H   0  0  0  0  0  0  0  0  0  0  0  0
   -4.3194    4.1736   -3.7952 H   0  0  0  0  0  0  0  0  0  0  0  0
   -4.7265   -0.4463   -5.6142 C   0  0  0  0  0  0  0  0  0  0  0  0
   -5.4009   -1.7795   -5.6533 C   0  0  0  0  0  0  0  0  0  0  0  0
   -5.4706   -2.1594   -6.7012 H   0  0  0  0  0  0  0  0  0  0  0  0
   -4.8364   -2.5159   -5.0321 H   0  0  0  0  0  0  0  0  0  0  0  0
   -6.4343   -1.6796   -5.2374 H   0  0  0  0  0  0  0  0  0  0  0  0
   -4.3160    0.0132   -4.2420 C   0  0  0  0  0  0  0  0  0  0  0  0
   -4.0941    1.5058   -4.1474 C   0  0  0  0  0  0  0  0  0  0  0  0
   -3.3013    1.7206   -3.3807 H   0  0  0  0  0  0  0  0  0  0  0  0
   -6.2760    1.7455   -3.1518 O   0  0  0  0  0  0  0  0  0  0  0  0
   -4.5144    0.2160   -6.6355 O   0  0  0  0  0  0  0  0  0  0  0  0
   -5.0983   -0.3037   -3.4994 H   0  0  0  0  0  0  0  0  0  0  0  0
   -3.3644   -0.5258   -3.9842 H   0  0  0  0  0  0  0  0  0  0  0  0
   -3.7283    1.9002   -5.1346 H   0  0  0  0  0  0  0  0  0  0  0  0
  1  2  1  0  0  0  0
  1 12  1  0  0  0  0
  1 14  2  0  0  0  0
  2  3  1  0  0  0  0
  2  4  1  0  0  0  0
  2  5  1  0  0  0  0
  6  7  1  0  0  0  0
  6 11  1  0  0  0  0
  6 15  2  0  0  0  0
  7  8  1  0  0  0  0
  7  9  1  0  0  0  0
  7 10  1  0  0  0  0
 11 12  1  0  0  0  0
 11 16  1  0  0  0  0
 11 17  1  0  0  0  0
 12 13  1  0  0  0  0
 12 18  1  0  0  0  0
M  END
