./000110-43-0.hin
 OpenBabel09241315583D

 22 21  0  0  0  0  0  0  0  0999 V2000
   -0.3986   -3.5150   -0.0000 C   0  0  0  0  0  0  0  0  0  0  0  0
   -0.3849   -2.0083   -0.0000 C   0  0  0  0  0  0  0  0  0  0  0  0
   -1.7884   -1.4402   -0.0000 C   0  0  0  0  0  0  0  0  0  0  0  0
   -1.7663    0.0726   -0.0000 C   0  0  0  0  0  0  0  0  0  0  0  0
   -3.1683    0.6398   -0.0000 C   0  0  0  0  0  0  0  0  0  0  0  0
   -3.1887    2.1418   -0.0000 C   0  0  0  0  0  0  0  0  0  0  0  0
    0.6451   -3.9123   -0.0000 H   0  0  0  0  0  0  0  0  0  0  0  0
   -0.9243   -3.9050    0.9049 H   0  0  0  0  0  0  0  0  0  0  0  0
   -0.9243   -3.9050   -0.9050 H   0  0  0  0  0  0  0  0  0  0  0  0
    0.1683   -1.6357    0.9024 H   0  0  0  0  0  0  0  0  0  0  0  0
    0.1683   -1.6357   -0.9025 H   0  0  0  0  0  0  0  0  0  0  0  0
   -2.3426   -1.8102   -0.9027 H   0  0  0  0  0  0  0  0  0  0  0  0
   -2.3426   -1.8102    0.9027 H   0  0  0  0  0  0  0  0  0  0  0  0
   -1.2127    0.4488    0.9005 H   0  0  0  0  0  0  0  0  0  0  0  0
   -1.2126    0.4488   -0.9006 H   0  0  0  0  0  0  0  0  0  0  0  0
   -3.7275    0.2791   -0.9044 H   0  0  0  0  0  0  0  0  0  0  0  0
   -3.7275    0.2791    0.9043 H   0  0  0  0  0  0  0  0  0  0  0  0
   -4.5558    2.7502   -0.0000 C   0  0  0  0  0  0  0  0  0  0  0  0
   -2.1644    2.8313   -0.0000 O   0  0  0  0  0  0  0  0  0  0  0  0
   -4.4940    3.8655   -0.0000 H   0  0  0  0  0  0  0  0  0  0  0  0
   -5.1166    2.4186   -0.9074 H   0  0  0  0  0  0  0  0  0  0  0  0
   -5.1167    2.4186    0.9073 H   0  0  0  0  0  0  0  0  0  0  0  0
  1  2  1  0  0  0  0
  1  7  1  0  0  0  0
  1  8  1  0  0  0  0
  1  9  1  0  0  0  0
  2  3  1  0  0  0  0
  2 10  1  0  0  0  0
  2 11  1  0  0  0  0
  3  4  1  0  0  0  0
  3 12  1  0  0  0  0
  3 13  1  0  0  0  0
  4  5  1  0  0  0  0
  4 14  1  0  0  0  0
  4 15  1  0  0  0  0
  5  6  1  0  0  0  0
  5 16  1  0  0  0  0
  5 17  1  0  0  0  0
  6 18  1  0  0  0  0
  6 19  2  0  0  0  0
 18 20  1  0  0  0  0
 18 21  1  0  0  0  0
 18 22  1  0  0  0  0
M  END
