./000110-62-3.hin
 OpenBabel09241315583D

 16 15  0  0  0  0  0  0  0  0999 V2000
  -14.4307    1.8377   35.0073 C   0  0  0  0  0  0  0  0  0  0  0  0
  -15.9993    5.3447   34.9497 C   0  0  0  0  0  0  0  0  0  0  0  0
  -14.5086    3.3501   35.0239 C   0  0  0  0  0  0  0  0  0  0  0  0
  -15.9347    3.8488   34.9449 C   0  0  0  0  0  0  0  0  0  0  0  0
  -16.5375    3.4381   35.7980 H   0  0  0  0  0  0  0  0  0  0  0  0
  -16.4165    3.4876   33.9954 H   0  0  0  0  0  0  0  0  0  0  0  0
  -13.9142    3.7659   34.1675 H   0  0  0  0  0  0  0  0  0  0  0  0
  -14.0394    3.7297   35.9705 H   0  0  0  0  0  0  0  0  0  0  0  0
  -15.1145    5.8660   34.5183 H   0  0  0  0  0  0  0  0  0  0  0  0
  -16.9641    5.9730   35.3863 O   0  0  0  0  0  0  0  0  0  0  0  0
  -15.1690    1.4163   35.7399 H   0  0  0  0  0  0  0  0  0  0  0  0
  -14.6862    1.2562   33.6406 C   0  0  0  0  0  0  0  0  0  0  0  0
  -13.4082    1.5275   35.3528 H   0  0  0  0  0  0  0  0  0  0  0  0
  -14.5876    0.1440   33.6704 H   0  0  0  0  0  0  0  0  0  0  0  0
  -15.7154    1.5071   33.2866 H   0  0  0  0  0  0  0  0  0  0  0  0
  -13.9534    1.6548   32.8978 H   0  0  0  0  0  0  0  0  0  0  0  0
  1  3  1  0  0  0  0
  1 11  1  0  0  0  0
  1 12  1  0  0  0  0
  1 13  1  0  0  0  0
  2  4  1  0  0  0  0
  2  9  1  0  0  0  0
  2 10  2  0  0  0  0
  3  4  1  0  0  0  0
  3  7  1  0  0  0  0
  3  8  1  0  0  0  0
  4  5  1  0  0  0  0
  4  6  1  0  0  0  0
 12 14  1  0  0  0  0
 12 15  1  0  0  0  0
 12 16  1  0  0  0  0
M  END
