./000110-82-7.hin
 OpenBabel09241315583D

 18 18  0  0  0  0  0  0  0  0999 V2000
   -1.4600   -0.2896   -0.6474 C   0  0  0  0  0  0  0  0  0  0  0  0
   -0.7377    1.7533    0.6037 C   0  0  0  0  0  0  0  0  0  0  0  0
    0.6817    1.2248    0.6474 C   0  0  0  0  0  0  0  0  0  0  0  0
   -1.4852    1.2248   -0.6037 C   0  0  0  0  0  0  0  0  0  0  0  0
    0.7069   -0.2896    0.6037 C   0  0  0  0  0  0  0  0  0  0  0  0
   -0.0406   -0.8182   -0.6037 C   0  0  0  0  0  0  0  0  0  0  0  0
   -2.0365   -0.6973    0.2243 H   0  0  0  0  0  0  0  0  0  0  0  0
   -1.9651   -0.6468   -1.5822 H   0  0  0  0  0  0  0  0  0  0  0  0
   -1.2776    1.4493    1.5388 H   0  0  0  0  0  0  0  0  0  0  0  0
   -0.7204    2.8738    0.5737 H   0  0  0  0  0  0  0  0  0  0  0  0
    1.2582    1.6324   -0.2243 H   0  0  0  0  0  0  0  0  0  0  0  0
    1.1868    1.5819    1.5822 H   0  0  0  0  0  0  0  0  0  0  0  0
   -2.5473    1.5819   -0.5737 H   0  0  0  0  0  0  0  0  0  0  0  0
   -1.0186    1.6324   -1.5388 H   0  0  0  0  0  0  0  0  0  0  0  0
    1.7690   -0.6468    0.5737 H   0  0  0  0  0  0  0  0  0  0  0  0
    0.2403   -0.6973    1.5388 H   0  0  0  0  0  0  0  0  0  0  0  0
    0.4993   -0.5142   -1.5388 H   0  0  0  0  0  0  0  0  0  0  0  0
   -0.0579   -1.9386   -0.5737 H   0  0  0  0  0  0  0  0  0  0  0  0
  1  4  1  0  0  0  0
  1  6  1  0  0  0  0
  1  7  1  0  0  0  0
  1  8  1  0  0  0  0
  2  3  1  0  0  0  0
  2  4  1  0  0  0  0
  2  9  1  0  0  0  0
  2 10  1  0  0  0  0
  3  5  1  0  0  0  0
  3 11  1  0  0  0  0
  3 12  1  0  0  0  0
  4 13  1  0  0  0  0
  4 14  1  0  0  0  0
  5  6  1  0  0  0  0
  5 15  1  0  0  0  0
  5 16  1  0  0  0  0
  6 17  1  0  0  0  0
  6 18  1  0  0  0  0
M  END
