./000110-88-3.hin
 OpenBabel09241315583D

 12 12  0  0  0  0  0  0  0  0999 V2000
   -0.3824    0.0802   -3.1268 C   0  0  0  0  0  0  0  0  0  0  0  0
    0.9798    2.0067   -3.1268 C   0  0  0  0  0  0  0  0  0  0  0  0
   -0.3396    1.4948   -3.1135 O   0  0  0  0  0  0  0  0  0  0  0  0
    1.6609    0.0802   -1.9471 C   0  0  0  0  0  0  0  0  0  0  0  0
    0.3163   -0.3603   -1.9775 O   0  0  0  0  0  0  0  0  0  0  0  0
    0.8960    3.1147   -2.9815 H   0  0  0  0  0  0  0  0  0  0  0  0
    1.5220    1.7165   -4.0659 H   0  0  0  0  0  0  0  0  0  0  0  0
    2.2471   -0.3343   -2.8100 H   0  0  0  0  0  0  0  0  0  0  0  0
    2.0715   -0.2101   -0.9454 H   0  0  0  0  0  0  0  0  0  0  0  0
    1.6281    1.4948   -1.9775 O   0  0  0  0  0  0  0  0  0  0  0  0
    0.0719   -0.3343   -4.0659 H   0  0  0  0  0  0  0  0  0  0  0  0
   -1.4550   -0.2101   -2.9815 H   0  0  0  0  0  0  0  0  0  0  0  0
  1  3  1  0  0  0  0
  1  5  1  0  0  0  0
  1 11  1  0  0  0  0
  1 12  1  0  0  0  0
  2  3  1  0  0  0  0
  2  6  1  0  0  0  0
  2  7  1  0  0  0  0
  2 10  1  0  0  0  0
  4  5  1  0  0  0  0
  4  8  1  0  0  0  0
  4  9  1  0  0  0  0
  4 10  1  0  0  0  0
M  END
