./000111-43-3.hin
 OpenBabel09241315583D

 21 20  0  0  0  0  0  0  0  0999 V2000
   -3.8183  -10.4532   22.8297 C   0  0  0  0  0  0  0  0  0  0  0  0
   -3.7095   -8.9385   22.8297 C   0  0  0  0  0  0  0  0  0  0  0  0
   -2.4520  -12.3854   22.8297 C   0  0  0  0  0  0  0  0  0  0  0  0
   -0.9877  -12.7877   22.8297 C   0  0  0  0  0  0  0  0  0  0  0  0
   -2.4854  -10.9598   22.8297 O   0  0  0  0  0  0  0  0  0  0  0  0
   -0.8477  -14.2868   22.8297 C   0  0  0  0  0  0  0  0  0  0  0  0
   -0.4860  -12.3498   21.9276 H   0  0  0  0  0  0  0  0  0  0  0  0
   -0.4860  -12.3498   23.7318 H   0  0  0  0  0  0  0  0  0  0  0  0
   -2.9760  -12.7753   21.9164 H   0  0  0  0  0  0  0  0  0  0  0  0
   -2.9760  -12.7753   23.7430 H   0  0  0  0  0  0  0  0  0  0  0  0
   -4.3606  -10.8172   23.7430 H   0  0  0  0  0  0  0  0  0  0  0  0
    0.2321  -14.5717   22.8297 H   0  0  0  0  0  0  0  0  0  0  0  0
   -1.3291  -14.7300   23.7350 H   0  0  0  0  0  0  0  0  0  0  0  0
   -1.3291  -14.7300   21.9244 H   0  0  0  0  0  0  0  0  0  0  0  0
   -5.0763   -8.3068   22.8297 C   0  0  0  0  0  0  0  0  0  0  0  0
   -4.3606  -10.8172   21.9164 H   0  0  0  0  0  0  0  0  0  0  0  0
   -3.1294   -8.6114   23.7318 H   0  0  0  0  0  0  0  0  0  0  0  0
   -3.1294   -8.6114   21.9276 H   0  0  0  0  0  0  0  0  0  0  0  0
   -4.9849   -7.1938   22.8297 H   0  0  0  0  0  0  0  0  0  0  0  0
   -5.6545   -8.6129   21.9244 H   0  0  0  0  0  0  0  0  0  0  0  0
   -5.6545   -8.6129   23.7350 H   0  0  0  0  0  0  0  0  0  0  0  0
  1  2  1  0  0  0  0
  1  5  1  0  0  0  0
  1 11  1  0  0  0  0
  1 16  1  0  0  0  0
  2 15  1  0  0  0  0
  2 17  1  0  0  0  0
  2 18  1  0  0  0  0
  3  4  1  0  0  0  0
  3  5  1  0  0  0  0
  3  9  1  0  0  0  0
  3 10  1  0  0  0  0
  4  6  1  0  0  0  0
  4  7  1  0  0  0  0
  4  8  1  0  0  0  0
  6 12  1  0  0  0  0
  6 13  1  0  0  0  0
  6 14  1  0  0  0  0
 15 19  1  0  0  0  0
 15 20  1  0  0  0  0
 15 21  1  0  0  0  0
M  END
