./000111-47-7.hin
 OpenBabel09241315583D

 21 20  0  0  0  0  0  0  0  0999 V2000
   -1.4704    0.2365   15.0000 C   0  0  0  0  0  0  0  0  0  0  0  0
   -1.3478    2.0020   15.0000 S   0  0  0  0  0  0  0  0  0  0  0  0
   -3.0532    2.4750   15.0000 C   0  0  0  0  0  0  0  0  0  0  0  0
   -0.0688   -0.3191   15.0000 C   0  0  0  0  0  0  0  0  0  0  0  0
   -2.0306   -0.1116   15.9016 H   0  0  0  0  0  0  0  0  0  0  0  0
   -2.0306   -0.1116   14.0984 H   0  0  0  0  0  0  0  0  0  0  0  0
   -3.1098    3.9816   15.0000 C   0  0  0  0  0  0  0  0  0  0  0  0
   -3.5682    2.0628   14.0984 H   0  0  0  0  0  0  0  0  0  0  0  0
   -3.5682    2.0628   15.9016 H   0  0  0  0  0  0  0  0  0  0  0  0
   -4.5353    4.4741   15.0000 C   0  0  0  0  0  0  0  0  0  0  0  0
   -2.5747    4.3782   15.9041 H   0  0  0  0  0  0  0  0  0  0  0  0
   -2.5747    4.3782   14.0959 H   0  0  0  0  0  0  0  0  0  0  0  0
   -0.0796   -1.8271   15.0000 C   0  0  0  0  0  0  0  0  0  0  0  0
    0.4835    0.0532   14.0959 H   0  0  0  0  0  0  0  0  0  0  0  0
    0.4835    0.0532   15.9041 H   0  0  0  0  0  0  0  0  0  0  0  0
   -4.5559    5.5907   15.0000 H   0  0  0  0  0  0  0  0  0  0  0  0
   -5.0789    4.1105   14.0947 H   0  0  0  0  0  0  0  0  0  0  0  0
   -5.0789    4.1105   15.9053 H   0  0  0  0  0  0  0  0  0  0  0  0
    0.9662   -2.2188   15.0000 H   0  0  0  0  0  0  0  0  0  0  0  0
   -0.6036   -2.2184   15.9053 H   0  0  0  0  0  0  0  0  0  0  0  0
   -0.6036   -2.2184   14.0947 H   0  0  0  0  0  0  0  0  0  0  0  0
  1  2  1  0  0  0  0
  1  4  1  0  0  0  0
  1  5  1  0  0  0  0
  1  6  1  0  0  0  0
  2  3  1  0  0  0  0
  3  7  1  0  0  0  0
  3  8  1  0  0  0  0
  3  9  1  0  0  0  0
  4 13  1  0  0  0  0
  4 14  1  0  0  0  0
  4 15  1  0  0  0  0
  7 10  1  0  0  0  0
  7 11  1  0  0  0  0
  7 12  1  0  0  0  0
 10 16  1  0  0  0  0
 10 17  1  0  0  0  0
 10 18  1  0  0  0  0
 13 19  1  0  0  0  0
 13 20  1  0  0  0  0
 13 21  1  0  0  0  0
M  END
