./000111-70-6.hin
 OpenBabel09241315583D

 24 23  0  0  0  0  0  0  0  0999 V2000
   -0.1191   -3.5050   -0.0000 C   0  0  0  0  0  0  0  0  0  0  0  0
   -0.1487   -1.9985   -0.0000 C   0  0  0  0  0  0  0  0  0  0  0  0
   -1.5677   -1.4706   -0.0000 C   0  0  0  0  0  0  0  0  0  0  0  0
   -1.5921    0.0428   -0.0000 C   0  0  0  0  0  0  0  0  0  0  0  0
   -3.0114    0.5691   -0.0000 C   0  0  0  0  0  0  0  0  0  0  0  0
   -3.0314    2.0813   -0.0000 C   0  0  0  0  0  0  0  0  0  0  0  0
   -4.4602    2.5966   -0.0000 C   0  0  0  0  0  0  0  0  0  0  0  0
   -4.3919    4.0143   -0.0000 O   0  0  0  0  0  0  0  0  0  0  0  0
    0.9353   -3.8726   -0.0000 H   0  0  0  0  0  0  0  0  0  0  0  0
   -0.6337   -3.9097    0.9049 H   0  0  0  0  0  0  0  0  0  0  0  0
   -0.6337   -3.9097   -0.9050 H   0  0  0  0  0  0  0  0  0  0  0  0
    0.3939   -1.6107    0.9025 H   0  0  0  0  0  0  0  0  0  0  0  0
    0.3939   -1.6107   -0.9025 H   0  0  0  0  0  0  0  0  0  0  0  0
   -2.1114   -1.8560   -0.9026 H   0  0  0  0  0  0  0  0  0  0  0  0
   -2.1114   -1.8560    0.9025 H   0  0  0  0  0  0  0  0  0  0  0  0
   -1.0484    0.4282    0.9026 H   0  0  0  0  0  0  0  0  0  0  0  0
   -1.0484    0.4282   -0.9027 H   0  0  0  0  0  0  0  0  0  0  0  0
   -3.5549    0.1838   -0.9030 H   0  0  0  0  0  0  0  0  0  0  0  0
   -3.5549    0.1838    0.9029 H   0  0  0  0  0  0  0  0  0  0  0  0
   -2.4963    2.4772    0.9020 H   0  0  0  0  0  0  0  0  0  0  0  0
   -2.4963    2.4772   -0.9021 H   0  0  0  0  0  0  0  0  0  0  0  0
   -5.3014    4.3330   -0.0000 H   0  0  0  0  0  0  0  0  0  0  0  0
   -5.0093    2.2404   -0.9131 H   0  0  0  0  0  0  0  0  0  0  0  0
   -5.0093    2.2404    0.9130 H   0  0  0  0  0  0  0  0  0  0  0  0
  1  2  1  0  0  0  0
  1  9  1  0  0  0  0
  1 10  1  0  0  0  0
  1 11  1  0  0  0  0
  2  3  1  0  0  0  0
  2 12  1  0  0  0  0
  2 13  1  0  0  0  0
  3  4  1  0  0  0  0
  3 14  1  0  0  0  0
  3 15  1  0  0  0  0
  4  5  1  0  0  0  0
  4 16  1  0  0  0  0
  4 17  1  0  0  0  0
  5  6  1  0  0  0  0
  5 18  1  0  0  0  0
  5 19  1  0  0  0  0
  6  7  1  0  0  0  0
  6 20  1  0  0  0  0
  6 21  1  0  0  0  0
  7  8  1  0  0  0  0
  7 23  1  0  0  0  0
  7 24  1  0  0  0  0
  8 22  1  0  0  0  0
M  END
