./000111-96-6.hin
 OpenBabel09241315583D

 23 22  0  0  0  0  0  0  0  0999 V2000
  -13.6746    4.9504   12.3698 O   0  0  0  0  0  0  0  0  0  0  0  0
  -13.7936    6.3445   12.1444 C   0  0  0  0  0  0  0  0  0  0  0  0
  -10.9546    1.0991   12.4238 C   0  0  0  0  0  0  0  0  0  0  0  0
   -9.4831    0.7488   12.2282 C   0  0  0  0  0  0  0  0  0  0  0  0
   -8.9841    0.3687   13.5096 O   0  0  0  0  0  0  0  0  0  0  0  0
  -11.5931    0.5519   11.6814 H   0  0  0  0  0  0  0  0  0  0  0  0
  -11.2891    0.8487   13.4656 H   0  0  0  0  0  0  0  0  0  0  0  0
  -11.0674    2.5028   12.1932 O   0  0  0  0  0  0  0  0  0  0  0  0
   -9.3743   -0.1145   11.5204 H   0  0  0  0  0  0  0  0  0  0  0  0
   -7.5841    0.1521   13.5061 C   0  0  0  0  0  0  0  0  0  0  0  0
  -12.3776    2.9872   12.4782 C   0  0  0  0  0  0  0  0  0  0  0  0
  -12.3400    4.4833   12.1827 C   0  0  0  0  0  0  0  0  0  0  0  0
  -14.8757    6.5638   12.3240 H   0  0  0  0  0  0  0  0  0  0  0  0
  -13.1528    6.9161   12.8606 H   0  0  0  0  0  0  0  0  0  0  0  0
   -7.3445   -0.1424   14.5583 H   0  0  0  0  0  0  0  0  0  0  0  0
   -7.3139   -0.6697   12.7976 H   0  0  0  0  0  0  0  0  0  0  0  0
  -13.1294    2.4728   11.8241 H   0  0  0  0  0  0  0  0  0  0  0  0
  -12.6327    2.8010   13.5540 H   0  0  0  0  0  0  0  0  0  0  0  0
  -11.6447    5.0101   12.8869 H   0  0  0  0  0  0  0  0  0  0  0  0
  -12.0114    4.6717   11.1273 H   0  0  0  0  0  0  0  0  0  0  0  0
  -13.5100    6.5998   11.0934 H   0  0  0  0  0  0  0  0  0  0  0  0
   -7.0401    1.0884   13.2273 H   0  0  0  0  0  0  0  0  0  0  0  0
   -8.9115    1.6313   11.8356 H   0  0  0  0  0  0  0  0  0  0  0  0
  1  2  1  0  0  0  0
  1 12  1  0  0  0  0
  2 13  1  0  0  0  0
  2 14  1  0  0  0  0
  2 21  1  0  0  0  0
  3  4  1  0  0  0  0
  3  6  1  0  0  0  0
  3  7  1  0  0  0  0
  3  8  1  0  0  0  0
  4  5  1  0  0  0  0
  4  9  1  0  0  0  0
  4 23  1  0  0  0  0
  5 10  1  0  0  0  0
  8 11  1  0  0  0  0
 10 15  1  0  0  0  0
 10 16  1  0  0  0  0
 10 22  1  0  0  0  0
 11 12  1  0  0  0  0
 11 17  1  0  0  0  0
 11 18  1  0  0  0  0
 12 19  1  0  0  0  0
 12 20  1  0  0  0  0
M  END
