./000112-40-3.hin
 OpenBabel09241315583D

 38 37  0  0  0  0  0  0  0  0999 V2000
   -1.2517   -3.2798    0.0000 C   0  0  0  0  0  0  0  0  0  0  0  0
   -1.2786   -1.7732    0.0000 C   0  0  0  0  0  0  0  0  0  0  0  0
   -2.6965   -1.2425   -0.0000 C   0  0  0  0  0  0  0  0  0  0  0  0
   -2.7186    0.2709    0.0000 C   0  0  0  0  0  0  0  0  0  0  0  0
   -4.1367    0.8001   -0.0000 C   0  0  0  0  0  0  0  0  0  0  0  0
   -4.1587    2.3136    0.0000 C   0  0  0  0  0  0  0  0  0  0  0  0
   -5.5768    2.8428   -0.0000 C   0  0  0  0  0  0  0  0  0  0  0  0
   -5.5987    4.3562    0.0000 C   0  0  0  0  0  0  0  0  0  0  0  0
   -7.0169    4.8855   -0.0000 C   0  0  0  0  0  0  0  0  0  0  0  0
   -7.0389    6.3988    0.0000 C   0  0  0  0  0  0  0  0  0  0  0  0
   -8.4569    6.9295   -0.0000 C   0  0  0  0  0  0  0  0  0  0  0  0
   -8.4837    8.4361    0.0000 C   0  0  0  0  0  0  0  0  0  0  0  0
   -0.1980   -3.6495    0.0000 H   0  0  0  0  0  0  0  0  0  0  0  0
   -1.7672   -3.6835    0.9049 H   0  0  0  0  0  0  0  0  0  0  0  0
   -1.7672   -3.6835   -0.9049 H   0  0  0  0  0  0  0  0  0  0  0  0
   -0.7352   -1.3865    0.9025 H   0  0  0  0  0  0  0  0  0  0  0  0
   -0.7352   -1.3865   -0.9025 H   0  0  0  0  0  0  0  0  0  0  0  0
   -3.2410   -1.6269   -0.9025 H   0  0  0  0  0  0  0  0  0  0  0  0
   -3.2410   -1.6269    0.9025 H   0  0  0  0  0  0  0  0  0  0  0  0
   -2.1739    0.6549    0.9026 H   0  0  0  0  0  0  0  0  0  0  0  0
   -2.1739    0.6549   -0.9026 H   0  0  0  0  0  0  0  0  0  0  0  0
   -4.6814    0.4161   -0.9026 H   0  0  0  0  0  0  0  0  0  0  0  0
   -4.6814    0.4160    0.9026 H   0  0  0  0  0  0  0  0  0  0  0  0
   -3.6139    2.6976    0.9026 H   0  0  0  0  0  0  0  0  0  0  0  0
   -3.6139    2.6976   -0.9026 H   0  0  0  0  0  0  0  0  0  0  0  0
   -6.1215    2.4587   -0.9026 H   0  0  0  0  0  0  0  0  0  0  0  0
   -6.1215    2.4587    0.9026 H   0  0  0  0  0  0  0  0  0  0  0  0
   -5.0540    4.7403    0.9026 H   0  0  0  0  0  0  0  0  0  0  0  0
   -5.0540    4.7403   -0.9026 H   0  0  0  0  0  0  0  0  0  0  0  0
   -7.5616    4.5014   -0.9026 H   0  0  0  0  0  0  0  0  0  0  0  0
   -7.5616    4.5014    0.9026 H   0  0  0  0  0  0  0  0  0  0  0  0
   -6.4944    6.7832    0.9025 H   0  0  0  0  0  0  0  0  0  0  0  0
   -6.4944    6.7832   -0.9025 H   0  0  0  0  0  0  0  0  0  0  0  0
   -9.0003    6.5429   -0.9025 H   0  0  0  0  0  0  0  0  0  0  0  0
   -9.0003    6.5429    0.9025 H   0  0  0  0  0  0  0  0  0  0  0  0
   -9.5374    8.8059   -0.0000 H   0  0  0  0  0  0  0  0  0  0  0  0
   -7.9683    8.8398    0.9049 H   0  0  0  0  0  0  0  0  0  0  0  0
   -7.9683    8.8398   -0.9049 H   0  0  0  0  0  0  0  0  0  0  0  0
  1  2  1  0  0  0  0
  1 13  1  0  0  0  0
  1 14  1  0  0  0  0
  1 15  1  0  0  0  0
  2  3  1  0  0  0  0
  2 16  1  0  0  0  0
  2 17  1  0  0  0  0
  3  4  1  0  0  0  0
  3 18  1  0  0  0  0
  3 19  1  0  0  0  0
  4  5  1  0  0  0  0
  4 20  1  0  0  0  0
  4 21  1  0  0  0  0
  5  6  1  0  0  0  0
  5 22  1  0  0  0  0
  5 23  1  0  0  0  0
  6  7  1  0  0  0  0
  6 24  1  0  0  0  0
  6 25  1  0  0  0  0
  7  8  1  0  0  0  0
  7 26  1  0  0  0  0
  7 27  1  0  0  0  0
  8  9  1  0  0  0  0
  8 28  1  0  0  0  0
  8 29  1  0  0  0  0
  9 10  1  0  0  0  0
  9 30  1  0  0  0  0
  9 31  1  0  0  0  0
 10 11  1  0  0  0  0
 10 32  1  0  0  0  0
 10 33  1  0  0  0  0
 11 12  1  0  0  0  0
 11 34  1  0  0  0  0
 11 35  1  0  0  0  0
 12 36  1  0  0  0  0
 12 37  1  0  0  0  0
 12 38  1  0  0  0  0
M  END
