./000119-64-2.hin
 OpenBabel09241315583D

 22 23  0  0  0  0  0  0  0  0999 V2000
   -2.0257    1.4032   -1.3301 C   0  0  0  0  0  0  0  0  0  0  0  0
   -1.9597    2.9117   -1.4234 C   0  0  0  0  0  0  0  0  0  0  0  0
   -0.5259    3.3945   -1.3520 C   0  0  0  0  0  0  0  0  0  0  0  0
   -0.1770    1.5639    0.3543 C   0  0  0  0  0  0  0  0  0  0  0  0
   -2.5531    3.3646   -0.5863 H   0  0  0  0  0  0  0  0  0  0  0  0
   -1.4415    0.9503   -2.1736 H   0  0  0  0  0  0  0  0  0  0  0  0
    0.6115    0.9802    1.3549 C   0  0  0  0  0  0  0  0  0  0  0  0
    1.8126    1.5654    1.7442 C   0  0  0  0  0  0  0  0  0  0  0  0
    0.2731    0.0497    1.8348 H   0  0  0  0  0  0  0  0  0  0  0  0
    2.4234    1.0984    2.5302 H   0  0  0  0  0  0  0  0  0  0  0  0
    2.2398    2.7462    1.1354 C   0  0  0  0  0  0  0  0  0  0  0  0
    1.4643    3.3322    0.1395 C   0  0  0  0  0  0  0  0  0  0  0  0
    1.8004    4.2627   -0.3420 H   0  0  0  0  0  0  0  0  0  0  0  0
    0.2543    2.7494   -0.2604 C   0  0  0  0  0  0  0  0  0  0  0  0
   -1.4696    0.9197   -0.0068 C   0  0  0  0  0  0  0  0  0  0  0  0
   -3.0881    1.0610   -1.4342 H   0  0  0  0  0  0  0  0  0  0  0  0
   -2.4199    3.2545   -2.3864 H   0  0  0  0  0  0  0  0  0  0  0  0
   -0.5157    4.5092   -1.2153 H   0  0  0  0  0  0  0  0  0  0  0  0
   -0.0111    3.1761   -2.3282 H   0  0  0  0  0  0  0  0  0  0  0  0
    3.1873    3.2125    1.4415 H   0  0  0  0  0  0  0  0  0  0  0  0
   -2.2115    1.1382    0.8103 H   0  0  0  0  0  0  0  0  0  0  0  0
   -1.3384   -0.1951   -0.0442 H   0  0  0  0  0  0  0  0  0  0  0  0
  1  2  1  0  0  0  0
  1  6  1  0  0  0  0
  1 15  1  0  0  0  0
  1 16  1  0  0  0  0
  2  3  1  0  0  0  0
  2  5  1  0  0  0  0
  2 17  1  0  0  0  0
  3 14  1  0  0  0  0
  3 18  1  0  0  0  0
  3 19  1  0  0  0  0
  4  7  2  0  0  0  0
  4 14  1  0  0  0  0
  4 15  1  0  0  0  0
  7  8  1  0  0  0  0
  7  9  1  0  0  0  0
  8 10  1  0  0  0  0
  8 11  2  0  0  0  0
 11 12  1  0  0  0  0
 11 20  1  0  0  0  0
 12 13  1  0  0  0  0
 12 14  2  0  0  0  0
 15 21  1  0  0  0  0
 15 22  1  0  0  0  0
M  END
