./000120-12-7.hin
 OpenBabel09241315583D

 24 26  0  0  0  0  0  0  0  0999 V2000
   -2.5137   -4.3790   -0.0000 C   0  0  0  0  0  0  0  0  0  0  0  0
   -2.5441   -2.9465   -0.0000 C   0  0  0  0  0  0  0  0  0  0  0  0
   -3.7497   -2.2366   -0.0000 C   0  0  0  0  0  0  0  0  0  0  0  0
   -1.3067   -2.2321   -0.0000 C   0  0  0  0  0  0  0  0  0  0  0  0
   -1.3187   -0.8330   -0.0000 C   0  0  0  0  0  0  0  0  0  0  0  0
   -2.5243   -0.1231    0.0000 C   0  0  0  0  0  0  0  0  0  0  0  0
   -3.7617   -0.8375    0.0000 C   0  0  0  0  0  0  0  0  0  0  0  0
   -1.3267   -5.0522   -0.0000 C   0  0  0  0  0  0  0  0  0  0  0  0
   -0.0813   -2.9746   -0.0000 C   0  0  0  0  0  0  0  0  0  0  0  0
   -2.5547    1.3094    0.0000 C   0  0  0  0  0  0  0  0  0  0  0  0
   -4.9871   -0.0950    0.0000 C   0  0  0  0  0  0  0  0  0  0  0  0
   -4.9765    1.2696    0.0000 C   0  0  0  0  0  0  0  0  0  0  0  0
   -3.7418    1.9825    0.0000 C   0  0  0  0  0  0  0  0  0  0  0  0
   -1.5948    1.8477    0.0000 H   0  0  0  0  0  0  0  0  0  0  0  0
   -5.9332   -0.6571    0.0000 H   0  0  0  0  0  0  0  0  0  0  0  0
   -5.9152    1.8431    0.0000 H   0  0  0  0  0  0  0  0  0  0  0  0
   -3.7691    3.0822    0.0000 H   0  0  0  0  0  0  0  0  0  0  0  0
   -0.0919   -4.3393   -0.0000 C   0  0  0  0  0  0  0  0  0  0  0  0
   -3.4736   -4.9173   -0.0000 H   0  0  0  0  0  0  0  0  0  0  0  0
   -1.2994   -6.1518   -0.0000 H   0  0  0  0  0  0  0  0  0  0  0  0
    0.8648   -2.4126   -0.0000 H   0  0  0  0  0  0  0  0  0  0  0  0
    0.8468   -4.9127   -0.0000 H   0  0  0  0  0  0  0  0  0  0  0  0
   -4.7032   -2.7871   -0.0000 H   0  0  0  0  0  0  0  0  0  0  0  0
   -0.3652   -0.2826   -0.0000 H   0  0  0  0  0  0  0  0  0  0  0  0
  1  2  2  0  0  0  0
  1  8  1  0  0  0  0
  1 19  1  0  0  0  0
  2  3  1  0  0  0  0
  2  4  1  0  0  0  0
  3  7  2  0  0  0  0
  3 23  1  0  0  0  0
  4  5  1  0  0  0  0
  4  9  2  0  0  0  0
  5  6  2  0  0  0  0
  5 24  1  0  0  0  0
  6  7  1  0  0  0  0
  6 10  1  0  0  0  0
  7 11  1  0  0  0  0
  8 18  2  0  0  0  0
  8 20  1  0  0  0  0
  9 18  1  0  0  0  0
  9 21  1  0  0  0  0
 10 13  2  0  0  0  0
 10 14  1  0  0  0  0
 11 12  2  0  0  0  0
 11 15  1  0  0  0  0
 12 13  1  0  0  0  0
 12 16  1  0  0  0  0
 13 17  1  0  0  0  0
 18 22  1  0  0  0  0
M  END
