./000120-83-2.hin
 OpenBabel09241315583D

 13 13  0  0  0  0  0  0  0  0999 V2000
   -3.9373    0.0607    0.0000 C   0  0  0  0  0  0  0  0  0  0  0  0
   -3.9535    1.4590   -0.0000 C   0  0  0  0  0  0  0  0  0  0  0  0
   -2.7533    2.1601    0.0000 C   0  0  0  0  0  0  0  0  0  0  0  0
   -1.5172    0.0585    0.0000 C   0  0  0  0  0  0  0  0  0  0  0  0
   -1.5316    1.4681   -0.0000 C   0  0  0  0  0  0  0  0  0  0  0  0
   -2.7282   -0.6393    0.0000 C   0  0  0  0  0  0  0  0  0  0  0  0
   -0.3259    2.1272   -0.0000 O   0  0  0  0  0  0  0  0  0  0  0  0
   -5.4027   -0.7994   -0.0000 Cl  0  0  0  0  0  0  0  0  0  0  0  0
   -4.9095    2.0052    0.0000 H   0  0  0  0  0  0  0  0  0  0  0  0
   -2.7578    3.2600   -0.0000 H   0  0  0  0  0  0  0  0  0  0  0  0
   -0.0672   -0.8209    0.0000 Cl  0  0  0  0  0  0  0  0  0  0  0  0
   -2.7248   -1.7416    0.0000 H   0  0  0  0  0  0  0  0  0  0  0  0
   -0.5073    3.0794   -0.0000 H   0  0  0  0  0  0  0  0  0  0  0  0
  1  2  2  0  0  0  0
  1  6  1  0  0  0  0
  1  8  1  0  0  0  0
  2  3  1  0  0  0  0
  2  9  1  0  0  0  0
  3  5  2  0  0  0  0
  3 10  1  0  0  0  0
  4  5  1  0  0  0  0
  4  6  2  0  0  0  0
  4 11  1  0  0  0  0
  5  7  1  0  0  0  0
  6 12  1  0  0  0  0
  7 13  1  0  0  0  0
M  END
