./000121-69-7.hin
 OpenBabel09241315583D

 20 20  0  0  0  0  0  0  0  0999 V2000
   -0.8181    0.6422   -0.4262 C   0  0  0  0  0  0  0  0  0  0  0  0
   -0.8344    1.9680    0.0061 C   0  0  0  0  0  0  0  0  0  0  0  0
    0.3413    2.5467    0.4768 C   0  0  0  0  0  0  0  0  0  0  0  0
    1.5271    1.8180    0.5133 C   0  0  0  0  0  0  0  0  0  0  0  0
    1.5581    0.4728    0.0845 C   0  0  0  0  0  0  0  0  0  0  0  0
    0.3548   -0.1027   -0.3893 C   0  0  0  0  0  0  0  0  0  0  0  0
   -1.7434    0.1755   -0.7965 H   0  0  0  0  0  0  0  0  0  0  0  0
   -1.7665    2.5491   -0.0237 H   0  0  0  0  0  0  0  0  0  0  0  0
    0.3395    3.5921    0.8203 H   0  0  0  0  0  0  0  0  0  0  0  0
    2.4388    2.3105    0.8831 H   0  0  0  0  0  0  0  0  0  0  0  0
    2.7229   -0.3342    0.1845 N   0  0  0  0  0  0  0  0  0  0  0  0
    3.1539   -0.9630   -1.0433 C   0  0  0  0  0  0  0  0  0  0  0  0
    3.8100    0.2021    0.9666 C   0  0  0  0  0  0  0  0  0  0  0  0
    0.3345   -1.1524   -0.7197 H   0  0  0  0  0  0  0  0  0  0  0  0
    3.8400   -1.8115   -0.7808 H   0  0  0  0  0  0  0  0  0  0  0  0
    2.2711   -1.3719   -1.5989 H   0  0  0  0  0  0  0  0  0  0  0  0
    3.7058   -0.2548   -1.7209 H   0  0  0  0  0  0  0  0  0  0  0  0
    4.5599   -0.6165    1.1320 H   0  0  0  0  0  0  0  0  0  0  0  0
    4.3320    1.0653    0.4691 H   0  0  0  0  0  0  0  0  0  0  0  0
    3.4196    0.5392    1.9624 H   0  0  0  0  0  0  0  0  0  0  0  0
  1  2  2  0  0  0  0
  1  6  1  0  0  0  0
  1  7  1  0  0  0  0
  2  3  1  0  0  0  0
  2  8  1  0  0  0  0
  3  4  2  0  0  0  0
  3  9  1  0  0  0  0
  4  5  1  0  0  0  0
  4 10  1  0  0  0  0
  5  6  2  0  0  0  0
  5 11  1  0  0  0  0
  6 14  1  0  0  0  0
 11 12  1  0  0  0  0
 11 13  1  0  0  0  0
 12 15  1  0  0  0  0
 12 16  1  0  0  0  0
 12 17  1  0  0  0  0
 13 18  1  0  0  0  0
 13 19  1  0  0  0  0
 13 20  1  0  0  0  0
M  END
