./000123-54-6.hin
 OpenBabel09241315583D

 15 14  0  0  0  0  0  0  0  0999 V2000
   -1.2088   -2.8510    0.2654 C   0  0  0  0  0  0  0  0  0  0  0  0
   -1.9115   -1.8929   -0.6370 C   0  0  0  0  0  0  0  0  0  0  0  0
   -3.2781   -1.4535   -0.1754 C   0  0  0  0  0  0  0  0  0  0  0  0
   -3.1756   -0.2285    0.6985 C   0  0  0  0  0  0  0  0  0  0  0  0
   -3.0637    1.0682   -0.0307 C   0  0  0  0  0  0  0  0  0  0  0  0
   -1.4263   -1.4823   -1.6950 O   0  0  0  0  0  0  0  0  0  0  0  0
   -3.1933   -0.3137    1.9293 O   0  0  0  0  0  0  0  0  0  0  0  0
   -0.1386   -2.9670   -0.0326 H   0  0  0  0  0  0  0  0  0  0  0  0
   -1.2626   -2.4860    1.3211 H   0  0  0  0  0  0  0  0  0  0  0  0
   -1.7093   -3.8491    0.2077 H   0  0  0  0  0  0  0  0  0  0  0  0
   -3.9160   -1.2152   -1.0676 H   0  0  0  0  0  0  0  0  0  0  0  0
   -2.7298    1.8831    0.6561 H   0  0  0  0  0  0  0  0  0  0  0  0
   -2.3346    0.9678   -0.8732 H   0  0  0  0  0  0  0  0  0  0  0  0
   -4.0620    1.3412   -0.4540 H   0  0  0  0  0  0  0  0  0  0  0  0
   -3.7640   -2.2865    0.3980 H   0  0  0  0  0  0  0  0  0  0  0  0
  1  2  1  0  0  0  0
  1  8  1  0  0  0  0
  1  9  1  0  0  0  0
  1 10  1  0  0  0  0
  2  3  1  0  0  0  0
  2  6  2  0  0  0  0
  3  4  1  0  0  0  0
  3 11  1  0  0  0  0
  3 15  1  0  0  0  0
  4  5  1  0  0  0  0
  4  7  2  0  0  0  0
  5 12  1  0  0  0  0
  5 13  1  0  0  0  0
  5 14  1  0  0  0  0
M  END
