./000123-73-9.hin
 OpenBabel09241315583D

 11 10  0  0  0  0  0  0  0  0999 V2000
   -0.0174   -2.2640   -0.0000 O   0  0  0  0  0  0  0  0  0  0  0  0
    0.0272   -1.0313   -0.0000 C   0  0  0  0  0  0  0  0  0  0  0  0
    1.2866   -0.2789   -0.0000 C   0  0  0  0  0  0  0  0  0  0  0  0
    1.3209    1.0597    0.0000 C   0  0  0  0  0  0  0  0  0  0  0  0
    2.5743    1.8388    0.0000 C   0  0  0  0  0  0  0  0  0  0  0  0
   -0.9053   -0.4207   -0.0000 H   0  0  0  0  0  0  0  0  0  0  0  0
    2.2078   -0.8849   -0.0000 H   0  0  0  0  0  0  0  0  0  0  0  0
    0.3870    1.6490    0.0000 H   0  0  0  0  0  0  0  0  0  0  0  0
    2.3660    2.9365   -0.0000 H   0  0  0  0  0  0  0  0  0  0  0  0
    3.1867    1.5969    0.9052 H   0  0  0  0  0  0  0  0  0  0  0  0
    3.1867    1.5969   -0.9052 H   0  0  0  0  0  0  0  0  0  0  0  0
  1  2  2  0  0  0  0
  2  3  1  0  0  0  0
  2  6  1  0  0  0  0
  3  4  2  0  0  0  0
  3  7  1  0  0  0  0
  4  5  1  0  0  0  0
  4  8  1  0  0  0  0
  5  9  1  0  0  0  0
  5 10  1  0  0  0  0
  5 11  1  0  0  0  0
M  END
