./000123-91-1.hin
 OpenBabel09241315583D

 14 14  0  0  0  0  0  0  0  0999 V2000
   -0.6718  -15.8387   25.3280 C   0  0  0  0  0  0  0  0  0  0  0  0
    0.7672  -16.3375   25.3119 C   0  0  0  0  0  0  0  0  0  0  0  0
    1.4506  -14.4045   26.4955 C   0  0  0  0  0  0  0  0  0  0  0  0
    0.0116  -13.9057   26.5117 C   0  0  0  0  0  0  0  0  0  0  0  0
    1.4974  -15.8265   26.4232 O   0  0  0  0  0  0  0  0  0  0  0  0
    1.9753  -14.1578   27.4548 H   0  0  0  0  0  0  0  0  0  0  0  0
    2.0080  -13.9689   25.6249 H   0  0  0  0  0  0  0  0  0  0  0  0
   -1.2292  -16.2743   26.1987 H   0  0  0  0  0  0  0  0  0  0  0  0
   -1.1965  -16.0854   24.3687 H   0  0  0  0  0  0  0  0  0  0  0  0
    1.2776  -16.0346   24.3599 H   0  0  0  0  0  0  0  0  0  0  0  0
    0.8112  -17.4504   25.4386 H   0  0  0  0  0  0  0  0  0  0  0  0
   -0.0324  -12.7929   26.3850 H   0  0  0  0  0  0  0  0  0  0  0  0
   -0.7187  -14.4167   25.4004 O   0  0  0  0  0  0  0  0  0  0  0  0
   -0.4989  -14.2086   27.4636 H   0  0  0  0  0  0  0  0  0  0  0  0
  1  2  1  0  0  0  0
  1  8  1  0  0  0  0
  1  9  1  0  0  0  0
  1 13  1  0  0  0  0
  2  5  1  0  0  0  0
  2 10  1  0  0  0  0
  2 11  1  0  0  0  0
  3  4  1  0  0  0  0
  3  5  1  0  0  0  0
  3  6  1  0  0  0  0
  3  7  1  0  0  0  0
  4 12  1  0  0  0  0
  4 13  1  0  0  0  0
  4 14  1  0  0  0  0
M  END
