./000124-40-3.hin
 OpenBabel09241315583D

 10  9  0  0  0  0  0  0  0  0999 V2000
   -1.6766    4.4060   -2.7153 N   0  0  0  0  0  0  0  0  0  0  0  0
   -1.7949    5.8008   -3.0448 C   0  0  0  0  0  0  0  0  0  0  0  0
   -0.3500    3.8716   -2.8649 C   0  0  0  0  0  0  0  0  0  0  0  0
   -2.8628    6.1148   -2.9071 H   0  0  0  0  0  0  0  0  0  0  0  0
   -1.1430    6.4717   -2.4188 H   0  0  0  0  0  0  0  0  0  0  0  0
   -1.5126    5.9485   -4.1205 H   0  0  0  0  0  0  0  0  0  0  0  0
   -0.0328    3.9726   -3.9363 H   0  0  0  0  0  0  0  0  0  0  0  0
    0.4206    4.3841   -2.2242 H   0  0  0  0  0  0  0  0  0  0  0  0
   -0.3672    2.7827   -2.5964 H   0  0  0  0  0  0  0  0  0  0  0  0
   -2.0240    4.2320   -1.7906 H   0  0  0  0  0  0  0  0  0  0  0  0
  1  2  1  0  0  0  0
  1  3  1  0  0  0  0
  1 10  1  0  0  0  0
  2  4  1  0  0  0  0
  2  5  1  0  0  0  0
  2  6  1  0  0  0  0
  3  7  1  0  0  0  0
  3  8  1  0  0  0  0
  3  9  1  0  0  0  0
M  END
