./000124-68-5.hin
 OpenBabel09241315583D

 17 16  0  0  0  0  0  0  0  0999 V2000
   -9.1012   -7.4435  -11.4497 C   0  0  0  0  0  0  0  0  0  0  0  0
   -9.1102   -5.9074  -11.3859 C   0  0  0  0  0  0  0  0  0  0  0  0
   -7.6362   -5.4252  -11.4340 C   0  0  0  0  0  0  0  0  0  0  0  0
   -9.7739   -5.3769  -10.1941 N   0  0  0  0  0  0  0  0  0  0  0  0
   -6.9642   -5.9471  -10.2984 O   0  0  0  0  0  0  0  0  0  0  0  0
   -7.1499   -5.8214  -12.3650 H   0  0  0  0  0  0  0  0  0  0  0  0
   -7.5959   -4.3045  -11.4392 H   0  0  0  0  0  0  0  0  0  0  0  0
   -6.1520   -5.4378  -10.2006 H   0  0  0  0  0  0  0  0  0  0  0  0
   -9.7938   -5.3854  -12.6588 C   0  0  0  0  0  0  0  0  0  0  0  0
  -10.1425   -7.8441  -11.4326 H   0  0  0  0  0  0  0  0  0  0  0  0
   -8.6070   -7.7802  -12.3913 H   0  0  0  0  0  0  0  0  0  0  0  0
   -8.5329   -7.8606  -10.5838 H   0  0  0  0  0  0  0  0  0  0  0  0
  -10.6731   -5.8050  -10.0932 H   0  0  0  0  0  0  0  0  0  0  0  0
   -9.2179   -5.5848   -9.3863 H   0  0  0  0  0  0  0  0  0  0  0  0
  -10.8490   -5.7449  -12.7077 H   0  0  0  0  0  0  0  0  0  0  0  0
   -9.7942   -4.2697  -12.6784 H   0  0  0  0  0  0  0  0  0  0  0  0
   -9.2464   -5.7625  -13.5549 H   0  0  0  0  0  0  0  0  0  0  0  0
  1  2  1  0  0  0  0
  1 10  1  0  0  0  0
  1 11  1  0  0  0  0
  1 12  1  0  0  0  0
  2  3  1  0  0  0  0
  2  4  1  0  0  0  0
  2  9  1  0  0  0  0
  3  5  1  0  0  0  0
  3  6  1  0  0  0  0
  3  7  1  0  0  0  0
  4 13  1  0  0  0  0
  4 14  1  0  0  0  0
  5  8  1  0  0  0  0
  9 15  1  0  0  0  0
  9 16  1  0  0  0  0
  9 17  1  0  0  0  0
M  END
