./000126-84-1.hin
 OpenBabel09241315583D

 25 24  0  0  0  0  0  0  0  0999 V2000
   10.6635   -8.2319    5.8147 O   0  0  0  0  0  0  0  0  0  0  0  0
   10.9145   -7.2229    4.8334 C   0  0  0  0  0  0  0  0  0  0  0  0
   12.4137   -6.9629    4.7100 C   0  0  0  0  0  0  0  0  0  0  0  0
   10.2883   -7.5249    3.4786 C   0  0  0  0  0  0  0  0  0  0  0  0
   12.8377   -6.7456    5.7191 H   0  0  0  0  0  0  0  0  0  0  0  0
   12.9218   -7.8599    4.2860 H   0  0  0  0  0  0  0  0  0  0  0  0
   12.5946   -6.0889    4.0422 H   0  0  0  0  0  0  0  0  0  0  0  0
   10.2784   -6.1476    5.5282 O   0  0  0  0  0  0  0  0  0  0  0  0
    9.9401   -5.0266    4.7157 C   0  0  0  0  0  0  0  0  0  0  0  0
    9.0795   -5.2981    4.0471 H   0  0  0  0  0  0  0  0  0  0  0  0
    9.5511   -3.9148    5.6647 C   0  0  0  0  0  0  0  0  0  0  0  0
   10.8166   -4.7251    4.0826 H   0  0  0  0  0  0  0  0  0  0  0  0
    9.1943   -7.7109    3.5957 H   0  0  0  0  0  0  0  0  0  0  0  0
   10.4421   -6.6643    2.7851 H   0  0  0  0  0  0  0  0  0  0  0  0
   10.7676   -8.4258    3.0272 H   0  0  0  0  0  0  0  0  0  0  0  0
   10.7793   -9.5707    5.3402 C   0  0  0  0  0  0  0  0  0  0  0  0
   11.7351   -9.6998    4.7661 H   0  0  0  0  0  0  0  0  0  0  0  0
   10.7599  -10.4594    6.5641 C   0  0  0  0  0  0  0  0  0  0  0  0
    9.9112   -9.8029    4.6665 H   0  0  0  0  0  0  0  0  0  0  0  0
    9.2360   -3.0215    5.0755 H   0  0  0  0  0  0  0  0  0  0  0  0
    8.7074   -4.2413    6.3185 H   0  0  0  0  0  0  0  0  0  0  0  0
   10.4132   -3.6402    6.3178 H   0  0  0  0  0  0  0  0  0  0  0  0
   10.8068  -11.5271    6.2444 H   0  0  0  0  0  0  0  0  0  0  0  0
   11.6313  -10.2336    7.2237 H   0  0  0  0  0  0  0  0  0  0  0  0
    9.8251  -10.2909    7.1502 H   0  0  0  0  0  0  0  0  0  0  0  0
  1  2  1  0  0  0  0
  1 16  1  0  0  0  0
  2  3  1  0  0  0  0
  2  4  1  0  0  0  0
  2  8  1  0  0  0  0
  3  5  1  0  0  0  0
  3  6  1  0  0  0  0
  3  7  1  0  0  0  0
  4 13  1  0  0  0  0
  4 14  1  0  0  0  0
  4 15  1  0  0  0  0
  8  9  1  0  0  0  0
  9 10  1  0  0  0  0
  9 11  1  0  0  0  0
  9 12  1  0  0  0  0
 11 20  1  0  0  0  0
 11 21  1  0  0  0  0
 11 22  1  0  0  0  0
 16 17  1  0  0  0  0
 16 18  1  0  0  0  0
 16 19  1  0  0  0  0
 18 23  1  0  0  0  0
 18 24  1  0  0  0  0
 18 25  1  0  0  0  0
M  END
