./000138-86-3.hin
 OpenBabel09241315583D

 26 26  0  0  1  0  0  0  0  0999 V2000
   -3.3919   -1.3921    0.0249 C   0  0  0  0  0  0  0  0  0  0  0  0
   -2.2521   -2.0894   -0.6348 C   0  0  0  0  0  0  0  0  0  0  0  0
   -1.0575   -1.5036   -0.8049 C   0  0  0  0  0  0  0  0  0  0  0  0
   -0.7525   -0.1139   -0.3904 C   0  0  0  0  0  0  0  0  0  0  0  0
   -1.7862    0.4404    0.5869 C   0  0  2  0  0  0  0  0  0  0  0  0
   -3.1907    0.1085    0.1012 C   0  0  0  0  0  0  0  0  0  0  0  0
   -2.5255   -3.4785   -1.0725 C   0  0  0  0  0  0  0  0  0  0  0  0
   -1.5946    1.9124    0.7877 C   0  0  0  0  0  0  0  0  0  0  0  0
   -2.1078    2.8127   -0.2740 C   0  0  0  0  0  0  0  0  0  0  0  0
   -0.9900    2.3885    1.8814 C   0  0  0  0  0  0  0  0  0  0  0  0
   -3.5128   -1.8107    1.0613 H   0  0  0  0  0  0  0  0  0  0  0  0
   -4.3412   -1.6109   -0.5334 H   0  0  0  0  0  0  0  0  0  0  0  0
   -0.2265   -2.0408   -1.2895 H   0  0  0  0  0  0  0  0  0  0  0  0
   -0.7111    0.5344   -1.3083 H   0  0  0  0  0  0  0  0  0  0  0  0
    0.2625   -0.0762    0.0880 H   0  0  0  0  0  0  0  0  0  0  0  0
   -1.6354   -0.0808    1.5771 H   0  0  0  0  0  0  0  0  0  0  0  0
   -3.3523    0.5610   -0.9123 H   0  0  0  0  0  0  0  0  0  0  0  0
   -3.9470    0.5552    0.7968 H   0  0  0  0  0  0  0  0  0  0  0  0
   -3.2981   -3.4804   -1.8820 H   0  0  0  0  0  0  0  0  0  0  0  0
   -1.6044   -3.9755   -1.4637 H   0  0  0  0  0  0  0  0  0  0  0  0
   -2.9172   -4.0822   -0.2161 H   0  0  0  0  0  0  0  0  0  0  0  0
   -1.7416    3.8592   -0.1325 H   0  0  0  0  0  0  0  0  0  0  0  0
   -1.7822    2.4574   -1.2833 H   0  0  0  0  0  0  0  0  0  0  0  0
   -3.2270    2.8260   -0.2533 H   0  0  0  0  0  0  0  0  0  0  0  0
   -0.8331    3.4622    2.0449 H   0  0  0  0  0  0  0  0  0  0  0  0
   -0.6147    1.7360    2.6798 H   0  0  0  0  0  0  0  0  0  0  0  0
  1  2  1  0  0  0  0
  1  6  1  0  0  0  0
  1 11  1  0  0  0  0
  1 12  1  0  0  0  0
  2  3  2  0  0  0  0
  2  7  1  0  0  0  0
  3  4  1  0  0  0  0
  3 13  1  0  0  0  0
  4  5  1  0  0  0  0
  4 14  1  0  0  0  0
  4 15  1  0  0  0  0
  5  6  1  0  0  0  0
  5  8  1  0  0  0  0
  5 16  1  1  0  0  0
  6 17  1  0  0  0  0
  6 18  1  0  0  0  0
  7 19  1  0  0  0  0
  7 20  1  0  0  0  0
  7 21  1  0  0  0  0
  8  9  1  0  0  0  0
  8 10  2  0  0  0  0
  9 22  1  0  0  0  0
  9 23  1  0  0  0  0
  9 24  1  0  0  0  0
 10 25  1  0  0  0  0
 10 26  1  0  0  0  0
M  END
