./000142-28-9.hin
 OpenBabel09241315583D

 11 10  0  0  0  0  0  0  0  0999 V2000
   -2.5631  -14.4544   23.7499 Cl  0  0  0  0  0  0  0  0  0  0  0  0
   -1.0814  -12.1962   23.7499 C   0  0  0  0  0  0  0  0  0  0  0  0
   -2.5058  -12.7021   23.7499 C   0  0  0  0  0  0  0  0  0  0  0  0
   -1.0792  -10.6846   23.7499 C   0  0  0  0  0  0  0  0  0  0  0  0
   -0.5374  -12.5808   24.6534 H   0  0  0  0  0  0  0  0  0  0  0  0
   -0.5374  -12.5808   22.8465 H   0  0  0  0  0  0  0  0  0  0  0  0
   -3.0535  -12.3643   24.6626 H   0  0  0  0  0  0  0  0  0  0  0  0
   -3.0535  -12.3643   22.8373 H   0  0  0  0  0  0  0  0  0  0  0  0
    0.5538  -10.0465   23.7499 Cl  0  0  0  0  0  0  0  0  0  0  0  0
   -1.5802  -10.2808   22.8373 H   0  0  0  0  0  0  0  0  0  0  0  0
   -1.5802  -10.2808   24.6625 H   0  0  0  0  0  0  0  0  0  0  0  0
  1  3  1  0  0  0  0
  2  3  1  0  0  0  0
  2  4  1  0  0  0  0
  2  5  1  0  0  0  0
  2  6  1  0  0  0  0
  3  7  1  0  0  0  0
  3  8  1  0  0  0  0
  4  9  1  0  0  0  0
  4 10  1  0  0  0  0
  4 11  1  0  0  0  0
M  END
