./000151-56-4.hin
 OpenBabel09241315583D

  8  8  0  0  0  0  0  0  0  0999 V2000
   -2.2482   -2.0509    3.6845 N   0  0  0  0  0  0  0  0  0  0  0  0
   -1.4346   -2.1139    2.4802 C   0  0  0  0  0  0  0  0  0  0  0  0
   -1.7339   -0.8047    3.1381 C   0  0  0  0  0  0  0  0  0  0  0  0
   -0.4032   -2.5219    2.5120 H   0  0  0  0  0  0  0  0  0  0  0  0
   -1.9738   -2.4268    1.5625 H   0  0  0  0  0  0  0  0  0  0  0  0
   -2.5011   -0.1200    2.7217 H   0  0  0  0  0  0  0  0  0  0  0  0
   -0.9225   -0.2504    3.6534 H   0  0  0  0  0  0  0  0  0  0  0  0
   -1.8013   -2.3699    4.5226 H   0  0  0  0  0  0  0  0  0  0  0  0
  1  2  1  0  0  0  0
  1  3  1  0  0  0  0
  1  8  1  0  0  0  0
  2  3  1  0  0  0  0
  2  4  1  0  0  0  0
  2  5  1  0  0  0  0
  3  6  1  0  0  0  0
  3  7  1  0  0  0  0
M  END
