./000152-18-1.hin
 OpenBabel09241315583D

 17 16  0  0  0  0  0  0  0  0999 V2000
   -9.2814    0.5027   33.0929 P   0  0  0  0  0  0  0  0  0  0  0  0
   -9.4042    2.0965   33.1524 O   0  0  0  0  0  0  0  0  0  0  0  0
   -7.6891    0.3618   33.1554 O   0  0  0  0  0  0  0  0  0  0  0  0
  -10.2906   -0.4930   34.3224 S   0  0  0  0  0  0  0  0  0  0  0  0
   -9.5356    0.2487   31.5435 O   0  0  0  0  0  0  0  0  0  0  0  0
  -10.2129    2.7017   34.1396 C   0  0  0  0  0  0  0  0  0  0  0  0
   -8.7596    1.0149   30.6427 C   0  0  0  0  0  0  0  0  0  0  0  0
   -7.0950   -0.4528   34.1444 C   0  0  0  0  0  0  0  0  0  0  0  0
   -9.5540    3.3581   34.7664 H   0  0  0  0  0  0  0  0  0  0  0  0
  -10.9701    3.3382   33.6110 H   0  0  0  0  0  0  0  0  0  0  0  0
  -10.7171    1.9167   34.7671 H   0  0  0  0  0  0  0  0  0  0  0  0
   -9.0783    0.6973   29.6177 H   0  0  0  0  0  0  0  0  0  0  0  0
   -8.9734    2.0997   30.8111 H   0  0  0  0  0  0  0  0  0  0  0  0
   -7.6774    0.7908   30.8139 H   0  0  0  0  0  0  0  0  0  0  0  0
   -6.4320    0.1990   34.7715 H   0  0  0  0  0  0  0  0  0  0  0  0
   -7.8867   -0.9472   34.7711 H   0  0  0  0  0  0  0  0  0  0  0  0
   -6.4664   -1.2180   33.6176 H   0  0  0  0  0  0  0  0  0  0  0  0
  1  2  1  0  0  0  0
  1  3  1  0  0  0  0
  1  4  2  0  0  0  0
  1  5  1  0  0  0  0
  2  6  1  0  0  0  0
  3  8  1  0  0  0  0
  5  7  1  0  0  0  0
  6  9  1  0  0  0  0
  6 10  1  0  0  0  0
  6 11  1  0  0  0  0
  7 12  1  0  0  0  0
  7 13  1  0  0  0  0
  7 14  1  0  0  0  0
  8 15  1  0  0  0  0
  8 16  1  0  0  0  0
  8 17  1  0  0  0  0
M  END
