./000156-59-2.hin
 OpenBabel09241315583D

  6  5  0  0  0  0  0  0  0  0999 V2000
    1.1535   -1.7150    0.2603 C   0  0  0  0  0  0  0  0  0  0  0  0
    1.1535   -0.3802    0.2603 C   0  0  0  0  0  0  0  0  0  0  0  0
    2.5322   -2.6851    0.2603 Cl  0  0  0  0  0  0  0  0  0  0  0  0
    0.2197   -2.2960    0.2603 H   0  0  0  0  0  0  0  0  0  0  0  0
    0.2197    0.2008    0.2603 H   0  0  0  0  0  0  0  0  0  0  0  0
    2.5322    0.5898    0.2603 Cl  0  0  0  0  0  0  0  0  0  0  0  0
  1  2  2  0  0  0  0
  1  3  1  0  0  0  0
  1  4  1  0  0  0  0
  2  5  1  0  0  0  0
  2  6  1  0  0  0  0
M  END
