./000280-33-1.hin
 OpenBabel09241315583D

 22 23  0  0  1  0  0  0  0  0999 V2000
   -1.5917    0.0441   -0.1860 C   0  0  2  0  0  0  0  0  0  0  0  0
   -0.1451    2.0779   -0.1860 C   0  0  0  0  0  0  0  0  0  0  0  0
    0.8226    0.8976   -0.1860 C   0  0  1  0  0  0  0  0  0  0  0  0
   -1.5809    1.5703   -0.1860 C   0  0  0  0  0  0  0  0  0  0  0  0
    0.5726    0.0480    1.0570 C   0  0  0  0  0  0  0  0  0  0  0  0
   -0.8633   -0.4596    1.0570 C   0  0  0  0  0  0  0  0  0  0  0  0
   -2.6486   -0.3296   -0.1860 H   0  0  0  0  0  0  0  0  0  0  0  0
   -0.8632   -0.4596   -1.4291 C   0  0  0  0  0  0  0  0  0  0  0  0
    0.0414    2.7136   -1.0889 H   0  0  0  0  0  0  0  0  0  0  0  0
    0.0414    2.7136    0.7169 H   0  0  0  0  0  0  0  0  0  0  0  0
    0.5726    0.0480   -1.4291 C   0  0  0  0  0  0  0  0  0  0  0  0
    1.8795    1.2713   -0.1860 H   0  0  0  0  0  0  0  0  0  0  0  0
   -2.1255    1.9474   -1.0889 H   0  0  0  0  0  0  0  0  0  0  0  0
   -2.1255    1.9474    0.7169 H   0  0  0  0  0  0  0  0  0  0  0  0
    0.7670    0.6613    1.9736 H   0  0  0  0  0  0  0  0  0  0  0  0
    1.2883   -0.8131    1.0707 H   0  0  0  0  0  0  0  0  0  0  0  0
   -1.3999   -0.1048    1.9736 H   0  0  0  0  0  0  0  0  0  0  0  0
   -0.8786   -1.5793    1.0707 H   0  0  0  0  0  0  0  0  0  0  0  0
   -1.3999   -0.1048   -2.3457 H   0  0  0  0  0  0  0  0  0  0  0  0
   -0.8786   -1.5793   -1.4428 H   0  0  0  0  0  0  0  0  0  0  0  0
    1.2883   -0.8131   -1.4428 H   0  0  0  0  0  0  0  0  0  0  0  0
    0.7670    0.6613   -2.3457 H   0  0  0  0  0  0  0  0  0  0  0  0
  1  4  1  0  0  0  0
  1  6  1  0  0  0  0
  1  7  1  6  0  0  0
  1  8  1  0  0  0  0
  2  3  1  0  0  0  0
  2  4  1  0  0  0  0
  2  9  1  0  0  0  0
  2 10  1  0  0  0  0
  3  5  1  0  0  0  0
  3 11  1  0  0  0  0
  3 12  1  1  0  0  0
  4 13  1  0  0  0  0
  4 14  1  0  0  0  0
  5  6  1  0  0  0  0
  5 15  1  0  0  0  0
  5 16  1  0  0  0  0
  6 17  1  0  0  0  0
  6 18  1  0  0  0  0
  8 11  1  0  0  0  0
  8 19  1  0  0  0  0
  8 20  1  0  0  0  0
 11 21  1  0  0  0  0
 11 22  1  0  0  0  0
M  END
