./000281-23-2.hin
 OpenBabel09241315583D

 26 28  0  0  1  0  0  0  0  0999 V2000
   -0.7577    2.5737   -4.7769 C   0  0  1  0  0  0  0  0  0  0  0  0
    1.2017    2.9615   -6.2694 C   0  0  1  0  0  0  0  0  0  0  0  0
    0.7794    1.7743   -7.1298 C   0  0  0  0  0  0  0  0  0  0  0  0
   -0.0350    3.5999   -5.6444 C   0  0  0  0  0  0  0  0  0  0  0  0
    0.0577    0.7460   -6.2641 C   0  0  2  0  0  0  0  0  0  0  0  0
   -1.1777    1.3870   -5.6390 C   0  0  0  0  0  0  0  0  0  0  0  0
   -1.6671    3.0444   -4.3177 H   0  0  0  0  0  0  0  0  0  0  0  0
    1.7324    3.7171   -6.9072 H   0  0  0  0  0  0  0  0  0  0  0  0
    1.6816    1.3073   -7.6010 H   0  0  0  0  0  0  0  0  0  0  0  0
    0.1014    2.1224   -7.9502 H   0  0  0  0  0  0  0  0  0  0  0  0
   -0.7212    3.9662   -6.4500 H   0  0  0  0  0  0  0  0  0  0  0  0
    0.2665    4.4793   -5.0201 H   0  0  0  0  0  0  0  0  0  0  0  0
   -0.2524   -0.1267   -6.8979 H   0  0  0  0  0  0  0  0  0  0  0  0
   -1.7189    0.6344   -5.0108 H   0  0  0  0  0  0  0  0  0  0  0  0
   -1.8752    1.7313   -6.4446 H   0  0  0  0  0  0  0  0  0  0  0  0
    0.1798    2.0923   -3.6737 C   0  0  0  0  0  0  0  0  0  0  0  0
    1.4168    1.4521   -4.2965 C   0  0  1  0  0  0  0  0  0  0  0  0
    0.9943    0.2667   -5.1591 C   0  0  0  0  0  0  0  0  0  0  0  0
    2.1369    2.4796   -5.1644 C   0  0  0  0  0  0  0  0  0  0  0  0
   -0.3479    1.3467   -3.0259 H   0  0  0  0  0  0  0  0  0  0  0  0
    0.4834    2.9567   -3.0298 H   0  0  0  0  0  0  0  0  0  0  0  0
    2.1055    1.0984   -3.4841 H   0  0  0  0  0  0  0  0  0  0  0  0
    1.8985   -0.2153   -5.6107 H   0  0  0  0  0  0  0  0  0  0  0  0
    0.4747   -0.4971   -4.5261 H   0  0  0  0  0  0  0  0  0  0  0  0
    3.0526    2.0197   -5.6161 H   0  0  0  0  0  0  0  0  0  0  0  0
    2.4600    3.3479   -4.5354 H   0  0  0  0  0  0  0  0  0  0  0  0
  1  4  1  0  0  0  0
  1  6  1  0  0  0  0
  1  7  1  1  0  0  0
  1 16  1  0  0  0  0
  2  3  1  0  0  0  0
  2  4  1  0  0  0  0
  2  8  1  6  0  0  0
  2 19  1  0  0  0  0
  3  5  1  0  0  0  0
  3  9  1  0  0  0  0
  3 10  1  0  0  0  0
  4 11  1  0  0  0  0
  4 12  1  0  0  0  0
  5  6  1  0  0  0  0
  5 13  1  6  0  0  0
  5 18  1  0  0  0  0
  6 14  1  0  0  0  0
  6 15  1  0  0  0  0
 16 17  1  0  0  0  0
 16 20  1  0  0  0  0
 16 21  1  0  0  0  0
 17 18  1  0  0  0  0
 17 19  1  0  0  0  0
 17 22  1  1  0  0  0
 18 23  1  0  0  0  0
 18 24  1  0  0  0  0
 19 25  1  0  0  0  0
 19 26  1  0  0  0  0
M  END
