./000287-92-3.hin
 OpenBabel09241315583D

 15 15  0  0  0  0  0  0  0  0999 V2000
   -3.4083    1.0100   -0.5187 C   0  0  0  0  0  0  0  0  0  0  0  0
   -3.4774    2.5113   -0.2759 C   0  0  0  0  0  0  0  0  0  0  0  0
   -2.2165    2.9126    0.4784 C   0  0  0  0  0  0  0  0  0  0  0  0
   -1.3140    1.6881    0.5595 C   0  0  0  0  0  0  0  0  0  0  0  0
   -1.9769    0.5743   -0.2393 C   0  0  0  0  0  0  0  0  0  0  0  0
   -3.7053    0.7595   -1.5668 H   0  0  0  0  0  0  0  0  0  0  0  0
   -4.1152    0.4752    0.1649 H   0  0  0  0  0  0  0  0  0  0  0  0
   -4.3927    2.7761    0.3092 H   0  0  0  0  0  0  0  0  0  0  0  0
   -3.5366    3.0593   -1.2500 H   0  0  0  0  0  0  0  0  0  0  0  0
   -2.4724    3.2769    1.5048 H   0  0  0  0  0  0  0  0  0  0  0  0
   -1.6959    3.7506   -0.0490 H   0  0  0  0  0  0  0  0  0  0  0  0
   -1.1807    1.3751    1.6257 H   0  0  0  0  0  0  0  0  0  0  0  0
   -0.2978    1.9156    0.1519 H   0  0  0  0  0  0  0  0  0  0  0  0
   -1.9558   -0.3904    0.3251 H   0  0  0  0  0  0  0  0  0  0  0  0
   -1.4285    0.4095   -1.2011 H   0  0  0  0  0  0  0  0  0  0  0  0
  1  2  1  0  0  0  0
  1  5  1  0  0  0  0
  1  6  1  0  0  0  0
  1  7  1  0  0  0  0
  2  3  1  0  0  0  0
  2  8  1  0  0  0  0
  2  9  1  0  0  0  0
  3  4  1  0  0  0  0
  3 10  1  0  0  0  0
  3 11  1  0  0  0  0
  4  5  1  0  0  0  0
  4 12  1  0  0  0  0
  4 13  1  0  0  0  0
  5 14  1  0  0  0  0
  5 15  1  0  0  0  0
M  END
