./000288-32-4.hin
 OpenBabel09241315583D

  9  9  0  0  0  0  0  0  0  0999 V2000
   -2.6088    0.1381    0.0000 C   0  0  0  0  0  0  0  0  0  0  0  0
   -1.4465    0.9093   -0.0000 N   0  0  0  0  0  0  0  0  0  0  0  0
   -0.3680    0.0161   -0.0000 C   0  0  0  0  0  0  0  0  0  0  0  0
   -0.7928   -1.2661   -0.0000 N   0  0  0  0  0  0  0  0  0  0  0  0
   -2.1854   -1.2047    0.0000 C   0  0  0  0  0  0  0  0  0  0  0  0
   -3.6032    0.5778    0.0000 H   0  0  0  0  0  0  0  0  0  0  0  0
   -1.3994    1.8922   -0.0000 H   0  0  0  0  0  0  0  0  0  0  0  0
    0.6753    0.3459   -0.0000 H   0  0  0  0  0  0  0  0  0  0  0  0
   -2.7956   -2.1065    0.0000 H   0  0  0  0  0  0  0  0  0  0  0  0
  1  2  1  0  0  0  0
  1  5  2  0  0  0  0
  1  6  1  0  0  0  0
  2  3  1  0  0  0  0
  2  7  1  0  0  0  0
  3  4  2  0  0  0  0
  3  8  1  0  0  0  0
  4  5  1  0  0  0  0
  5  9  1  0  0  0  0
M  END
