./000290-87-9.hin
 OpenBabel09241315583D

  9  9  0  0  0  0  0  0  0  0999 V2000
   -1.1535   -0.3623    2.5865 C   0  0  0  0  0  0  0  0  0  0  0  0
    1.1381   -0.3622    2.5865 C   0  0  0  0  0  0  0  0  0  0  0  0
    1.2062    1.0001    2.5865 N   0  0  0  0  0  0  0  0  0  0  0  0
   -0.0077    1.6223    2.5865 C   0  0  0  0  0  0  0  0  0  0  0  0
   -1.2216    1.0000    2.5865 N   0  0  0  0  0  0  0  0  0  0  0  0
   -2.1148   -0.9174    2.5865 H   0  0  0  0  0  0  0  0  0  0  0  0
    2.0994   -0.9172    2.5865 H   0  0  0  0  0  0  0  0  0  0  0  0
   -0.0078    2.7323    2.5865 H   0  0  0  0  0  0  0  0  0  0  0  0
   -0.0077   -1.1025    2.5865 N   0  0  0  0  0  0  0  0  0  0  0  0
  1  5  1  0  0  0  0
  1  6  1  0  0  0  0
  1  9  2  0  0  0  0
  2  3  2  0  0  0  0
  2  7  1  0  0  0  0
  2  9  1  0  0  0  0
  3  4  1  0  0  0  0
  4  5  2  0  0  0  0
  4  8  1  0  0  0  0
M  END
