./000302-01-2.hin
 OpenBabel09241315583D

  6  5  0  0  0  0  0  0  0  0999 V2000
   -9.4532   -5.2999  -10.7838 N   0  0  0  0  0  0  0  0  0  0  0  0
  -10.1013   -4.9969  -11.5023 H   0  0  0  0  0  0  0  0  0  0  0  0
   -8.8947   -4.4863  -10.5512 H   0  0  0  0  0  0  0  0  0  0  0  0
  -10.1949   -5.6250   -9.6684 N   0  0  0  0  0  0  0  0  0  0  0  0
  -10.7534   -6.4386   -9.9010 H   0  0  0  0  0  0  0  0  0  0  0  0
   -9.5468   -5.9280   -8.9499 H   0  0  0  0  0  0  0  0  0  0  0  0
  1  2  1  0  0  0  0
  1  3  1  0  0  0  0
  1  4  1  0  0  0  0
  4  5  1  0  0  0  0
  4  6  1  0  0  0  0
M  END
