./000354-33-6.hin
 OpenBabel09241315583D

  8  7  0  0  0  0  0  0  0  0999 V2000
   -0.1153   -0.8034   -0.0131 C   0  0  0  0  0  0  0  0  0  0  0  0
   -0.1249    0.8014   -0.0130 C   0  0  0  0  0  0  0  0  0  0  0  0
    0.9641   -1.1344   -0.0132 H   0  0  0  0  0  0  0  0  0  0  0  0
   -1.3723    1.3534   -0.0132 F   0  0  0  0  0  0  0  0  0  0  0  0
    0.5198    1.3152    1.0776 F   0  0  0  0  0  0  0  0  0  0  0  0
    0.5201    1.3153   -1.1034 F   0  0  0  0  0  0  0  0  0  0  0  0
   -0.7958   -1.2947    1.0667 F   0  0  0  0  0  0  0  0  0  0  0  0
   -0.7961   -1.2947   -1.0926 F   0  0  0  0  0  0  0  0  0  0  0  0
  1  2  1  0  0  0  0
  1  3  1  0  0  0  0
  1  7  1  0  0  0  0
  1  8  1  0  0  0  0
  2  4  1  0  0  0  0
  2  5  1  0  0  0  0
  2  6  1  0  0  0  0
M  END
