./000359-35-3.hin
 OpenBabel09241315583D

  8  7  0  0  0  0  0  0  0  0999 V2000
   -0.7582   -1.0492   -0.0063 C   0  0  0  0  0  0  0  0  0  0  0  0
   -0.7501    0.5420   -0.0202 C   0  0  0  0  0  0  0  0  0  0  0  0
    0.5222   -1.5373   -0.0677 F   0  0  0  0  0  0  0  0  0  0  0  0
   -1.2918   -1.4157    0.9179 H   0  0  0  0  0  0  0  0  0  0  0  0
   -2.0305    1.0301    0.0412 F   0  0  0  0  0  0  0  0  0  0  0  0
   -0.1632    1.0301    1.1194 F   0  0  0  0  0  0  0  0  0  0  0  0
   -1.3452   -1.5373   -1.1458 F   0  0  0  0  0  0  0  0  0  0  0  0
   -0.2166    0.9085   -0.9444 H   0  0  0  0  0  0  0  0  0  0  0  0
  1  2  1  0  0  0  0
  1  3  1  0  0  0  0
  1  4  1  0  0  0  0
  1  7  1  0  0  0  0
  2  5  1  0  0  0  0
  2  6  1  0  0  0  0
  2  8  1  0  0  0  0
M  END
