./000420-46-2.hin
 OpenBabel09241315583D

  8  7  0  0  0  0  0  0  0  0999 V2000
   -0.3396   -1.4682   -0.0200 C   0  0  0  0  0  0  0  0  0  0  0  0
   -0.3396    0.0719   -0.0200 C   0  0  0  0  0  0  0  0  0  0  0  0
   -1.3932   -1.8312   -0.0200 H   0  0  0  0  0  0  0  0  0  0  0  0
    0.1872   -1.8312   -0.9324 H   0  0  0  0  0  0  0  0  0  0  0  0
    0.1872   -1.8311    0.8925 H   0  0  0  0  0  0  0  0  0  0  0  0
    0.9146    0.6300   -0.0199 F   0  0  0  0  0  0  0  0  0  0  0  0
   -0.9666    0.6300   -1.1064 F   0  0  0  0  0  0  0  0  0  0  0  0
   -0.9669    0.6301    1.0661 F   0  0  0  0  0  0  0  0  0  0  0  0
  1  2  1  0  0  0  0
  1  3  1  0  0  0  0
  1  4  1  0  0  0  0
  1  5  1  0  0  0  0
  2  6  1  0  0  0  0
  2  7  1  0  0  0  0
  2  8  1  0  0  0  0
M  END
