./000460-19-5.hin
 OpenBabel09241315583D

  4  3  0  0  0  0  0  0  0  0999 V2000
   -4.7880   11.9062    9.9944 C   0  0  0  0  0  0  0  0  0  0  0  0
   -4.7880   13.0687    9.9944 N   0  0  0  0  0  0  0  0  0  0  0  0
   -4.7880   10.5220    9.9944 C   0  0  0  0  0  0  0  0  0  0  0  0
   -4.7880    9.3595    9.9944 N   0  0  0  0  0  0  0  0  0  0  0  0
  1  2  3  0  0  0  0
  1  3  1  0  0  0  0
  3  4  3  0  0  0  0
M  END
