./000462-06-6.hin
 OpenBabel09241315583D

 12 12  0  0  0  0  0  0  0  0999 V2000
   -1.7652   -0.8414   -0.0000 C   0  0  0  0  0  0  0  0  0  0  0  0
   -1.7656    0.5535   -0.0000 C   0  0  0  0  0  0  0  0  0  0  0  0
   -0.5665    1.2606   -0.0000 C   0  0  0  0  0  0  0  0  0  0  0  0
    0.6502    0.5531   -0.0000 C   0  0  0  0  0  0  0  0  0  0  0  0
    0.6546   -0.8544   -0.0000 C   0  0  0  0  0  0  0  0  0  0  0  0
   -0.5573   -1.5393   -0.0000 C   0  0  0  0  0  0  0  0  0  0  0  0
   -2.7175   -1.3913   -0.0000 H   0  0  0  0  0  0  0  0  0  0  0  0
   -2.7191    1.1030   -0.0000 H   0  0  0  0  0  0  0  0  0  0  0  0
   -0.5573    2.3597   -0.0000 H   0  0  0  0  0  0  0  0  0  0  0  0
    1.8236    1.2305   -0.0000 F   0  0  0  0  0  0  0  0  0  0  0  0
    1.6110   -1.3959   -0.0000 H   0  0  0  0  0  0  0  0  0  0  0  0
   -0.5582   -2.6398   -0.0000 H   0  0  0  0  0  0  0  0  0  0  0  0
  1  2  2  0  0  0  0
  1  6  1  0  0  0  0
  1  7  1  0  0  0  0
  2  3  1  0  0  0  0
  2  8  1  0  0  0  0
  3  4  2  0  0  0  0
  3  9  1  0  0  0  0
  4  5  1  0  0  0  0
  4 10  1  0  0  0  0
  5  6  2  0  0  0  0
  5 11  1  0  0  0  0
  6 12  1  0  0  0  0
M  END
