./000463-51-4.hin
 OpenBabel09241315583D

  5  4  0  0  0  0  0  0  0  0999 V2000
    0.5273    1.5687   -0.0000 O   0  0  0  0  0  0  0  0  0  0  0  0
    0.5273    4.0684   -0.0000 C   0  0  0  0  0  0  0  0  0  0  0  0
    0.5273    2.7614   -0.0000 C   0  0  0  0  0  0  0  0  0  0  0  0
    1.4615    4.6396   -0.0000 H   0  0  0  0  0  0  0  0  0  0  0  0
   -0.4070    4.6396   -0.0000 H   0  0  0  0  0  0  0  0  0  0  0  0
  1  3  2  0  0  0  0
  2  3  2  0  0  0  0
  2  4  1  0  0  0  0
  2  5  1  0  0  0  0
M  END
