./000463-82-1.hin
 OpenBabel09241315583D

 17 16  0  0  0  0  0  0  0  0999 V2000
   -0.6550   -0.5720   -0.0485 C   0  0  0  0  0  0  0  0  0  0  0  0
   -0.6550    0.9491   -0.0485 C   0  0  0  0  0  0  0  0  0  0  0  0
   -1.7020   -0.9593   -0.0485 H   0  0  0  0  0  0  0  0  0  0  0  0
   -0.1316   -0.9593   -0.9552 H   0  0  0  0  0  0  0  0  0  0  0  0
   -0.1316   -0.9593    0.8582 H   0  0  0  0  0  0  0  0  0  0  0  0
    0.7791    1.4561   -0.0485 C   0  0  0  0  0  0  0  0  0  0  0  0
   -1.3721    1.4561   -1.2904 C   0  0  0  0  0  0  0  0  0  0  0  0
    0.7952    2.5723   -0.0485 H   0  0  0  0  0  0  0  0  0  0  0  0
    1.3187    1.0917    0.8582 H   0  0  0  0  0  0  0  0  0  0  0  0
    1.3187    1.0917   -0.9551 H   0  0  0  0  0  0  0  0  0  0  0  0
   -1.3802    2.5723   -1.3044 H   0  0  0  0  0  0  0  0  0  0  0  0
   -1.3721    1.4561    1.1935 C   0  0  0  0  0  0  0  0  0  0  0  0
   -0.8567    1.0917   -2.2111 H   0  0  0  0  0  0  0  0  0  0  0  0
   -2.4271    1.0917   -1.3044 H   0  0  0  0  0  0  0  0  0  0  0  0
   -1.3802    2.5723    1.2075 H   0  0  0  0  0  0  0  0  0  0  0  0
   -2.4271    1.0917    1.2075 H   0  0  0  0  0  0  0  0  0  0  0  0
   -0.8567    1.0917    2.1142 H   0  0  0  0  0  0  0  0  0  0  0  0
  1  2  1  0  0  0  0
  1  3  1  0  0  0  0
  1  4  1  0  0  0  0
  1  5  1  0  0  0  0
  2  6  1  0  0  0  0
  2  7  1  0  0  0  0
  2 12  1  0  0  0  0
  6  8  1  0  0  0  0
  6  9  1  0  0  0  0
  6 10  1  0  0  0  0
  7 11  1  0  0  0  0
  7 13  1  0  0  0  0
  7 14  1  0  0  0  0
 12 15  1  0  0  0  0
 12 16  1  0  0  0  0
 12 17  1  0  0  0  0
M  END
