./000496-11-7.hin
 OpenBabel09241315583D

 19 20  0  0  0  0  0  0  0  0999 V2000
   -1.0314   -1.1572    1.4220 C   0  0  0  0  0  0  0  0  0  0  0  0
   -1.6351   -1.4265    0.5215 H   0  0  0  0  0  0  0  0  0  0  0  0
    3.2092    0.9857    1.3753 C   0  0  0  0  0  0  0  0  0  0  0  0
    2.4139    2.1115    1.5719 C   0  0  0  0  0  0  0  0  0  0  0  0
    2.6326   -0.2863    1.2611 C   0  0  0  0  0  0  0  0  0  0  0  0
    1.2549   -0.4041    1.3474 C   0  0  0  0  0  0  0  0  0  0  0  0
    0.4466    0.7401    1.5471 C   0  0  0  0  0  0  0  0  0  0  0  0
    1.0202    1.9962    1.6596 C   0  0  0  0  0  0  0  0  0  0  0  0
    4.3019    1.0919    1.3085 H   0  0  0  0  0  0  0  0  0  0  0  0
    2.8809    3.1034    1.6597 H   0  0  0  0  0  0  0  0  0  0  0  0
    3.2656   -1.1710    1.1061 H   0  0  0  0  0  0  0  0  0  0  0  0
    0.3979    2.8884    1.8148 H   0  0  0  0  0  0  0  0  0  0  0  0
   -0.9967    0.3670    1.6068 C   0  0  0  0  0  0  0  0  0  0  0  0
    0.4184   -1.6362    1.2571 C   0  0  0  0  0  0  0  0  0  0  0  0
   -1.5043   -1.6461    2.3083 H   0  0  0  0  0  0  0  0  0  0  0  0
   -1.4441    0.6627    2.5890 H   0  0  0  0  0  0  0  0  0  0  0  0
   -1.5750    0.8826    0.7993 H   0  0  0  0  0  0  0  0  0  0  0  0
    0.6945   -2.3647    2.0605 H   0  0  0  0  0  0  0  0  0  0  0  0
    0.5636   -2.1446    0.2707 H   0  0  0  0  0  0  0  0  0  0  0  0
  1  2  1  0  0  0  0
  1 13  1  0  0  0  0
  1 14  1  0  0  0  0
  1 15  1  0  0  0  0
  3  4  2  0  0  0  0
  3  5  1  0  0  0  0
  3  9  1  0  0  0  0
  4  8  1  0  0  0  0
  4 10  1  0  0  0  0
  5  6  2  0  0  0  0
  5 11  1  0  0  0  0
  6  7  1  0  0  0  0
  6 14  1  0  0  0  0
  7  8  2  0  0  0  0
  7 13  1  0  0  0  0
  8 12  1  0  0  0  0
 13 16  1  0  0  0  0
 13 17  1  0  0  0  0
 14 18  1  0  0  0  0
 14 19  1  0  0  0  0
M  END
