./000496-16-2.hin
 OpenBabel09241315583D

 17 18  0  0  0  0  0  0  0  0999 V2000
    0.9111   -1.7130    0.0324 C   0  0  0  0  0  0  0  0  0  0  0  0
    2.4237   -1.9926    0.1203 C   0  0  0  0  0  0  0  0  0  0  0  0
    0.3757   -2.1106    0.9294 H   0  0  0  0  0  0  0  0  0  0  0  0
    2.8044   -2.5681   -0.7583 H   0  0  0  0  0  0  0  0  0  0  0  0
    0.0474    2.0283   -0.1646 C   0  0  0  0  0  0  0  0  0  0  0  0
    1.3531    2.5108   -0.1184 C   0  0  0  0  0  0  0  0  0  0  0  0
   -0.2185    0.6510   -0.1216 C   0  0  0  0  0  0  0  0  0  0  0  0
    0.8467   -0.2244   -0.0319 C   0  0  0  0  0  0  0  0  0  0  0  0
    2.1713    0.2839    0.0142 C   0  0  0  0  0  0  0  0  0  0  0  0
    2.4496    1.6423   -0.0274 C   0  0  0  0  0  0  0  0  0  0  0  0
   -0.7923    2.7347   -0.2360 H   0  0  0  0  0  0  0  0  0  0  0  0
    1.5351    3.5956   -0.1537 H   0  0  0  0  0  0  0  0  0  0  0  0
   -1.2533    0.2832   -0.1588 H   0  0  0  0  0  0  0  0  0  0  0  0
    3.4801    2.0165    0.0093 H   0  0  0  0  0  0  0  0  0  0  0  0
    3.1268   -0.7172    0.1035 O   0  0  0  0  0  0  0  0  0  0  0  0
    0.4672   -2.1847   -0.8786 H   0  0  0  0  0  0  0  0  0  0  0  0
    2.7116   -2.4928    1.0768 H   0  0  0  0  0  0  0  0  0  0  0  0
  1  2  1  0  0  0  0
  1  3  1  0  0  0  0
  1  8  1  0  0  0  0
  1 16  1  0  0  0  0
  2  4  1  0  0  0  0
  2 15  1  0  0  0  0
  2 17  1  0  0  0  0
  5  6  2  0  0  0  0
  5  7  1  0  0  0  0
  5 11  1  0  0  0  0
  6 10  1  0  0  0  0
  6 12  1  0  0  0  0
  7  8  2  0  0  0  0
  7 13  1  0  0  0  0
  8  9  1  0  0  0  0
  9 10  2  0  0  0  0
  9 15  1  0  0  0  0
 10 14  1  0  0  0  0
M  END
