./000505-22-6.hin
 OpenBabel09241315583D

 14 14  0  0  0  0  0  0  0  0999 V2000
   -0.5375   -0.0542   -1.9926 C   0  0  0  0  0  0  0  0  0  0  0  0
    0.7853    1.9094   -2.0720 C   0  0  0  0  0  0  0  0  0  0  0  0
   -0.5287    1.3578   -2.0241 O   0  0  0  0  0  0  0  0  0  0  0  0
    1.4091   -0.1330   -3.3404 C   0  0  0  0  0  0  0  0  0  0  0  0
    0.0453   -0.5215   -3.1912 O   0  0  0  0  0  0  0  0  0  0  0  0
    1.3238    1.6706   -1.1163 H   0  0  0  0  0  0  0  0  0  0  0  0
    0.6153    3.0151   -2.1478 H   0  0  0  0  0  0  0  0  0  0  0  0
    1.6978   -0.5291   -4.3489 H   0  0  0  0  0  0  0  0  0  0  0  0
    2.0262   -0.6291   -2.5445 H   0  0  0  0  0  0  0  0  0  0  0  0
   -1.6161   -0.3617   -2.0279 H   0  0  0  0  0  0  0  0  0  0  0  0
    0.0063   -0.4472   -1.0923 H   0  0  0  0  0  0  0  0  0  0  0  0
    1.5540    1.3776   -3.2696 C   0  0  0  0  0  0  0  0  0  0  0  0
    1.1408    1.8331   -4.2063 H   0  0  0  0  0  0  0  0  0  0  0  0
    2.6334    1.6576   -3.1895 H   0  0  0  0  0  0  0  0  0  0  0  0
  1  3  1  0  0  0  0
  1  5  1  0  0  0  0
  1 10  1  0  0  0  0
  1 11  1  0  0  0  0
  2  3  1  0  0  0  0
  2  6  1  0  0  0  0
  2  7  1  0  0  0  0
  2 12  1  0  0  0  0
  4  5  1  0  0  0  0
  4  8  1  0  0  0  0
  4  9  1  0  0  0  0
  4 12  1  0  0  0  0
 12 13  1  0  0  0  0
 12 14  1  0  0  0  0
M  END
