./000512-56-1.hin
 OpenBabel09241315583D

 17 16  0  0  0  0  0  0  0  0999 V2000
   -9.3498    0.4211   33.1743 P   0  0  0  0  0  0  0  0  0  0  0  0
   -9.3893    2.0236   33.1898 O   0  0  0  0  0  0  0  0  0  0  0  0
   -7.7756    0.1194   33.2025 O   0  0  0  0  0  0  0  0  0  0  0  0
  -10.1213   -0.2257   34.2250 O   0  0  0  0  0  0  0  0  0  0  0  0
   -9.7239    0.0940   31.6607 O   0  0  0  0  0  0  0  0  0  0  0  0
  -10.1067    2.6686   34.2154 C   0  0  0  0  0  0  0  0  0  0  0  0
   -8.9454    0.7470   30.6824 C   0  0  0  0  0  0  0  0  0  0  0  0
   -7.2638   -0.6858   34.2379 C   0  0  0  0  0  0  0  0  0  0  0  0
   -9.3896    3.3125   34.7898 H   0  0  0  0  0  0  0  0  0  0  0  0
  -10.8777    3.3264   33.7342 H   0  0  0  0  0  0  0  0  0  0  0  0
  -10.5941    1.9174   34.8894 H   0  0  0  0  0  0  0  0  0  0  0  0
   -9.3351    0.4104   29.6893 H   0  0  0  0  0  0  0  0  0  0  0  0
   -9.0642    1.8532   30.8031 H   0  0  0  0  0  0  0  0  0  0  0  0
   -7.8746    0.4490   30.8124 H   0  0  0  0  0  0  0  0  0  0  0  0
   -6.5148   -0.0795   34.8124 H   0  0  0  0  0  0  0  0  0  0  0  0
   -8.0892   -1.0381   34.9094 H   0  0  0  0  0  0  0  0  0  0  0  0
   -6.7382   -1.5581   33.7671 H   0  0  0  0  0  0  0  0  0  0  0  0
  1  2  1  0  0  0  0
  1  3  1  0  0  0  0
  1  4  2  0  0  0  0
  1  5  1  0  0  0  0
  2  6  1  0  0  0  0
  3  8  1  0  0  0  0
  5  7  1  0  0  0  0
  6  9  1  0  0  0  0
  6 10  1  0  0  0  0
  6 11  1  0  0  0  0
  7 12  1  0  0  0  0
  7 13  1  0  0  0  0
  7 14  1  0  0  0  0
  8 15  1  0  0  0  0
  8 16  1  0  0  0  0
  8 17  1  0  0  0  0
M  END
