./000513-44-0.hin
 OpenBabel09241315583D

 15 14  0  0  0  0  0  0  0  0999 V2000
  -10.6739    6.5368   -7.8445 C   0  0  0  0  0  0  0  0  0  0  0  0
   -8.1718    8.0420   -9.2470 S   0  0  0  0  0  0  0  0  0  0  0  0
   -9.2107    8.5688   -7.9138 C   0  0  0  0  0  0  0  0  0  0  0  0
   -8.8273    8.5623  -10.2685 H   0  0  0  0  0  0  0  0  0  0  0  0
   -8.6720    8.1998   -7.0032 H   0  0  0  0  0  0  0  0  0  0  0  0
   -9.2290    9.6857   -7.8799 H   0  0  0  0  0  0  0  0  0  0  0  0
  -10.6339    8.0490   -7.9005 C   0  0  0  0  0  0  0  0  0  0  0  0
  -11.1134    8.4469   -6.9572 H   0  0  0  0  0  0  0  0  0  0  0  0
  -11.4357    8.5655   -9.0763 C   0  0  0  0  0  0  0  0  0  0  0  0
  -11.7306    6.1778   -7.8713 H   0  0  0  0  0  0  0  0  0  0  0  0
  -10.1229    6.1006   -8.7136 H   0  0  0  0  0  0  0  0  0  0  0  0
  -10.1963    6.1705   -6.9040 H   0  0  0  0  0  0  0  0  0  0  0  0
  -12.5107    8.2873   -8.9565 H   0  0  0  0  0  0  0  0  0  0  0  0
  -11.3633    9.6777   -9.1434 H   0  0  0  0  0  0  0  0  0  0  0  0
  -11.0673    8.1242  -10.0339 H   0  0  0  0  0  0  0  0  0  0  0  0
  1  7  1  0  0  0  0
  1 10  1  0  0  0  0
  1 11  1  0  0  0  0
  1 12  1  0  0  0  0
  2  3  1  0  0  0  0
  2  4  1  0  0  0  0
  3  5  1  0  0  0  0
  3  6  1  0  0  0  0
  3  7  1  0  0  0  0
  7  8  1  0  0  0  0
  7  9  1  0  0  0  0
  9 13  1  0  0  0  0
  9 14  1  0  0  0  0
  9 15  1  0  0  0  0
M  END
