./000541-31-1.hin
 OpenBabel09241315583D

 18 17  0  0  0  0  0  0  0  0999 V2000
   -4.0101   12.1465  -10.5509 C   0  0  0  0  0  0  0  0  0  0  0  0
   -5.5580   14.1053  -10.8379 C   0  0  0  0  0  0  0  0  0  0  0  0
   -5.5387   15.8758  -10.9453 S   0  0  0  0  0  0  0  0  0  0  0  0
   -4.1409   13.6641  -10.5747 C   0  0  0  0  0  0  0  0  0  0  0  0
   -3.4711   14.0767  -11.3769 H   0  0  0  0  0  0  0  0  0  0  0  0
   -2.5504   11.7542  -10.6599 C   0  0  0  0  0  0  0  0  0  0  0  0
   -4.5578   11.7270  -11.4421 H   0  0  0  0  0  0  0  0  0  0  0  0
   -2.4464   10.6427  -10.6357 H   0  0  0  0  0  0  0  0  0  0  0  0
   -2.1145   12.1308  -11.6163 H   0  0  0  0  0  0  0  0  0  0  0  0
   -1.9656   12.1832   -9.8109 H   0  0  0  0  0  0  0  0  0  0  0  0
   -6.2351   13.7754  -10.0138 H   0  0  0  0  0  0  0  0  0  0  0  0
   -5.9367   13.6652  -11.7916 H   0  0  0  0  0  0  0  0  0  0  0  0
   -6.8267   16.0857  -11.1474 H   0  0  0  0  0  0  0  0  0  0  0  0
   -4.6167   11.5582   -9.2944 C   0  0  0  0  0  0  0  0  0  0  0  0
   -3.7879   14.0836   -9.5954 H   0  0  0  0  0  0  0  0  0  0  0  0
   -4.5034   10.4471   -9.2954 H   0  0  0  0  0  0  0  0  0  0  0  0
   -4.1096   11.9639   -8.3860 H   0  0  0  0  0  0  0  0  0  0  0  0
   -5.7043   11.8020   -9.2310 H   0  0  0  0  0  0  0  0  0  0  0  0
  1  4  1  0  0  0  0
  1  6  1  0  0  0  0
  1  7  1  0  0  0  0
  1 14  1  0  0  0  0
  2  3  1  0  0  0  0
  2  4  1  0  0  0  0
  2 11  1  0  0  0  0
  2 12  1  0  0  0  0
  3 13  1  0  0  0  0
  4  5  1  0  0  0  0
  4 15  1  0  0  0  0
  6  8  1  0  0  0  0
  6  9  1  0  0  0  0
  6 10  1  0  0  0  0
 14 16  1  0  0  0  0
 14 17  1  0  0  0  0
 14 18  1  0  0  0  0
M  END
