./000543-67-9.hin
 OpenBabel09241315583D

 13 12  0  0  0  0  0  0  0  0999 V2000
    6.6435    2.8469   13.2798 C   0  0  0  0  0  0  0  0  0  0  0  0
    5.3719    4.8340   13.2798 O   0  0  0  0  0  0  0  0  0  0  0  0
    4.0891    6.4490   13.2798 O   0  0  0  0  0  0  0  0  0  0  0  0
    5.2083    6.1532   13.2798 N   0  0  0  0  0  0  0  0  0  0  0  0
    6.7450    4.3610   13.2798 C   0  0  0  0  0  0  0  0  0  0  0  0
    8.0174    2.2299   13.2798 C   0  0  0  0  0  0  0  0  0  0  0  0
    6.0664    2.5140   14.1820 H   0  0  0  0  0  0  0  0  0  0  0  0
    6.0664    2.5140   12.3775 H   0  0  0  0  0  0  0  0  0  0  0  0
    7.2670    4.7356   12.3621 H   0  0  0  0  0  0  0  0  0  0  0  0
    7.2670    4.7356   14.1974 H   0  0  0  0  0  0  0  0  0  0  0  0
    7.9348    1.1161   13.2798 H   0  0  0  0  0  0  0  0  0  0  0  0
    8.5925    2.5407   12.3740 H   0  0  0  0  0  0  0  0  0  0  0  0
    8.5925    2.5407   14.1855 H   0  0  0  0  0  0  0  0  0  0  0  0
  1  5  1  0  0  0  0
  1  6  1  0  0  0  0
  1  7  1  0  0  0  0
  1  8  1  0  0  0  0
  2  4  1  0  0  0  0
  2  5  1  0  0  0  0
  3  4  2  0  0  0  0
  5  9  1  0  0  0  0
  5 10  1  0  0  0  0
  6 11  1  0  0  0  0
  6 12  1  0  0  0  0
  6 13  1  0  0  0  0
M  END
