./000544-25-2.hin
 OpenBabel02041415413D

 15 15  0  0  0  0  0  0  0  0999 V2000
   -2.8949   -0.3035    1.0327 C   0  0  0  0  0  0  0  0  0  0  0  0
   -2.9563    1.1711    0.8810 C   0  0  0  0  0  0  0  0  0  0  0  0
   -2.5210    1.8453   -0.1944 C   0  0  0  0  0  0  0  0  0  0  0  0
   -1.8600    1.2737   -1.3422 C   0  0  0  0  0  0  0  0  0  0  0  0
   -1.0720    0.1819   -1.3422 C   0  0  0  0  0  0  0  0  0  0  0  0
   -0.7377   -0.6254   -0.1943 C   0  0  0  0  0  0  0  0  0  0  0  0
   -1.5147   -0.8262    0.8810 C   0  0  0  0  0  0  0  0  0  0  0  0
   -3.5577   -0.7819    0.2561 H   0  0  0  0  0  0  0  0  0  0  0  0
   -3.3034   -0.5983    2.0368 H   0  0  0  0  0  0  0  0  0  0  0  0
   -3.4187    1.7144    1.7215 H   0  0  0  0  0  0  0  0  0  0  0  0
   -2.6627    2.9405   -0.2412 H   0  0  0  0  0  0  0  0  0  0  0  0
   -1.9977    1.8355   -2.2841 H   0  0  0  0  0  0  0  0  0  0  0  0
   -0.5822   -0.1257   -2.2840 H   0  0  0  0  0  0  0  0  0  0  0  0
    0.2571   -1.1049   -0.2411 H   0  0  0  0  0  0  0  0  0  0  0  0
   -1.1447   -1.4362    1.7215 H   0  0  0  0  0  0  0  0  0  0  0  0
  1  2  1  0  0  0  0
  1  7  1  0  0  0  0
  1  8  1  0  0  0  0
  1  9  1  0  0  0  0
  2  3  2  0  0  0  0
  2 10  1  0  0  0  0
  3  4  1  0  0  0  0
  3 11  1  0  0  0  0
  4  5  2  0  0  0  0
  4 12  1  0  0  0  0
  5  6  1  0  0  0  0
  5 13  1  0  0  0  0
  6  7  2  0  0  0  0
  6 14  1  0  0  0  0
  7 15  1  0  0  0  0
M  END
