./000558-37-2.hin
 OpenBabel09241315583D

 18 17  0  0  0  0  0  0  0  0999 V2000
   -0.1787    0.0922   -0.1707 C   0  0  0  0  0  0  0  0  0  0  0  0
   -2.4980    1.8234    0.8282 C   0  0  0  0  0  0  0  0  0  0  0  0
   -1.6222    2.1031   -0.1341 C   0  0  0  0  0  0  0  0  0  0  0  0
   -0.2043    1.6161   -0.1575 C   0  0  0  0  0  0  0  0  0  0  0  0
    0.4970    2.1338   -1.4078 C   0  0  0  0  0  0  0  0  0  0  0  0
    0.5392    2.1228    1.0727 C   0  0  0  0  0  0  0  0  0  0  0  0
    0.8758   -0.2736   -0.1877 H   0  0  0  0  0  0  0  0  0  0  0  0
   -0.6836   -0.3110    0.7396 H   0  0  0  0  0  0  0  0  0  0  0  0
   -0.7066   -0.2959   -1.0741 H   0  0  0  0  0  0  0  0  0  0  0  0
   -3.5285    2.2008    0.8069 H   0  0  0  0  0  0  0  0  0  0  0  0
   -2.2500    1.2024    1.6992 H   0  0  0  0  0  0  0  0  0  0  0  0
   -1.9126    2.7316   -0.9929 H   0  0  0  0  0  0  0  0  0  0  0  0
    1.5536    1.7744   -1.4310 H   0  0  0  0  0  0  0  0  0  0  0  0
   -0.0242    1.7686   -2.3247 H   0  0  0  0  0  0  0  0  0  0  0  0
    0.4995    3.2499   -1.4177 H   0  0  0  0  0  0  0  0  0  0  0  0
    1.5953    1.7615    1.0585 H   0  0  0  0  0  0  0  0  0  0  0  0
    0.5430    3.2386    1.0903 H   0  0  0  0  0  0  0  0  0  0  0  0
    0.0458    1.7520    2.0029 H   0  0  0  0  0  0  0  0  0  0  0  0
  1  4  1  0  0  0  0
  1  7  1  0  0  0  0
  1  8  1  0  0  0  0
  1  9  1  0  0  0  0
  2  3  2  0  0  0  0
  2 10  1  0  0  0  0
  2 11  1  0  0  0  0
  3  4  1  0  0  0  0
  3 12  1  0  0  0  0
  4  5  1  0  0  0  0
  4  6  1  0  0  0  0
  5 13  1  0  0  0  0
  5 14  1  0  0  0  0
  5 15  1  0  0  0  0
  6 16  1  0  0  0  0
  6 17  1  0  0  0  0
  6 18  1  0  0  0  0
M  END
