./000563-45-1.hin
 OpenBabel09241315583D

 15 14  0  0  0  0  0  0  0  0999 V2000
  -16.0525    2.0029   35.8584 C   0  0  0  0  0  0  0  0  0  0  0  0
  -13.7075    3.7404   34.8492 C   0  0  0  0  0  0  0  0  0  0  0  0
  -16.0042    3.5181   35.8121 C   0  0  0  0  0  0  0  0  0  0  0  0
  -14.5953    4.0107   35.8032 C   0  0  0  0  0  0  0  0  0  0  0  0
  -16.5088    3.9095   36.7427 H   0  0  0  0  0  0  0  0  0  0  0  0
  -12.6793    4.1233   34.8808 H   0  0  0  0  0  0  0  0  0  0  0  0
  -13.9455    3.1206   33.9745 H   0  0  0  0  0  0  0  0  0  0  0  0
  -17.1121    1.6527   35.8923 H   0  0  0  0  0  0  0  0  0  0  0  0
  -15.5628    1.5684   34.9537 H   0  0  0  0  0  0  0  0  0  0  0  0
  -15.5219    1.6247   36.7646 H   0  0  0  0  0  0  0  0  0  0  0  0
  -14.3191    4.6376   36.6674 H   0  0  0  0  0  0  0  0  0  0  0  0
  -16.7720    4.0381   34.6121 C   0  0  0  0  0  0  0  0  0  0  0  0
  -17.8299    3.6830   34.6490 H   0  0  0  0  0  0  0  0  0  0  0  0
  -16.7698    5.1542   34.6032 H   0  0  0  0  0  0  0  0  0  0  0  0
  -16.3076    3.6751   33.6636 H   0  0  0  0  0  0  0  0  0  0  0  0
  1  3  1  0  0  0  0
  1  8  1  0  0  0  0
  1  9  1  0  0  0  0
  1 10  1  0  0  0  0
  2  4  2  0  0  0  0
  2  6  1  0  0  0  0
  2  7  1  0  0  0  0
  3  4  1  0  0  0  0
  3  5  1  0  0  0  0
  3 12  1  0  0  0  0
  4 11  1  0  0  0  0
 12 13  1  0  0  0  0
 12 14  1  0  0  0  0
 12 15  1  0  0  0  0
M  END
