./000563-79-1.hin
 OpenBabel09241315583D

 18 17  0  0  0  0  0  0  0  0999 V2000
   -1.6827   -3.3160   -0.3620 C   0  0  0  0  0  0  0  0  0  0  0  0
   -0.4221   -1.1351   -0.3655 C   0  0  0  0  0  0  0  0  0  0  0  0
   -1.7297   -1.8341   -0.3519 C   0  0  0  0  0  0  0  0  0  0  0  0
   -2.8984   -1.1585   -0.3315 C   0  0  0  0  0  0  0  0  0  0  0  0
   -4.2058   -1.8574   -0.3011 C   0  0  0  0  0  0  0  0  0  0  0  0
   -2.9457    0.3235   -0.3383 C   0  0  0  0  0  0  0  0  0  0  0  0
   -1.8594   -3.7126    0.6700 H   0  0  0  0  0  0  0  0  0  0  0  0
   -2.4719   -3.7363   -1.0349 H   0  0  0  0  0  0  0  0  0  0  0  0
   -0.6893   -3.6869   -0.7150 H   0  0  0  0  0  0  0  0  0  0  0  0
   -0.1937   -0.7685   -1.3984 H   0  0  0  0  0  0  0  0  0  0  0  0
   -0.4340   -0.2518    0.3213 H   0  0  0  0  0  0  0  0  0  0  0  0
    0.4039   -1.8160   -0.0443 H   0  0  0  0  0  0  0  0  0  0  0  0
   -4.4694   -2.2229   -1.3260 H   0  0  0  0  0  0  0  0  0  0  0  0
   -4.1704   -2.7415    0.3839 H   0  0  0  0  0  0  0  0  0  0  0  0
   -5.0203   -1.1770    0.0490 H   0  0  0  0  0  0  0  0  0  0  0  0
   -2.7338    0.7188    0.6875 H   0  0  0  0  0  0  0  0  0  0  0  0
   -2.1801    0.7446   -1.0372 H   0  0  0  0  0  0  0  0  0  0  0  0
   -3.9506    0.6948   -0.6566 H   0  0  0  0  0  0  0  0  0  0  0  0
  1  3  1  0  0  0  0
  1  7  1  0  0  0  0
  1  8  1  0  0  0  0
  1  9  1  0  0  0  0
  2  3  1  0  0  0  0
  2 10  1  0  0  0  0
  2 11  1  0  0  0  0
  2 12  1  0  0  0  0
  3  4  2  0  0  0  0
  4  5  1  0  0  0  0
  4  6  1  0  0  0  0
  5 13  1  0  0  0  0
  5 14  1  0  0  0  0
  5 15  1  0  0  0  0
  6 16  1  0  0  0  0
  6 17  1  0  0  0  0
  6 18  1  0  0  0  0
M  END
