./000565-69-5.hin
 OpenBabel09241315583D

 19 18  0  0  0  0  0  0  0  0999 V2000
   -4.0210   -1.2057    0.8995 C   0  0  0  0  0  0  0  0  0  0  0  0
   -3.8011    0.2914    0.9902 C   0  0  0  0  0  0  0  0  0  0  0  0
   -5.0996    1.0093    1.2897 C   0  0  0  0  0  0  0  0  0  0  0  0
   -3.1958    0.7883   -0.3064 C   0  0  0  0  0  0  0  0  0  0  0  0
   -1.6952    0.8741   -0.3060 C   0  0  0  0  0  0  0  0  0  0  0  0
   -1.1213    1.1622   -1.6679 C   0  0  0  0  0  0  0  0  0  0  0  0
   -3.8853    1.0933   -1.2831 O   0  0  0  0  0  0  0  0  0  0  0  0
   -3.0556   -1.7318    0.7047 H   0  0  0  0  0  0  0  0  0  0  0  0
   -4.4479   -1.5863    1.8584 H   0  0  0  0  0  0  0  0  0  0  0  0
   -4.7329   -1.4449    0.0728 H   0  0  0  0  0  0  0  0  0  0  0  0
   -3.0723    0.4986    1.8242 H   0  0  0  0  0  0  0  0  0  0  0  0
   -4.9148    2.0999    1.4400 H   0  0  0  0  0  0  0  0  0  0  0  0
   -5.8133    0.8872    0.4386 H   0  0  0  0  0  0  0  0  0  0  0  0
   -5.5649    0.5931    2.2149 H   0  0  0  0  0  0  0  0  0  0  0  0
   -1.3974    1.6826    0.4150 H   0  0  0  0  0  0  0  0  0  0  0  0
   -1.2866   -0.0946    0.0891 H   0  0  0  0  0  0  0  0  0  0  0  0
   -0.0107    1.2557   -1.6069 H   0  0  0  0  0  0  0  0  0  0  0  0
   -1.3749    0.3409   -2.3809 H   0  0  0  0  0  0  0  0  0  0  0  0
   -1.5433    2.1130   -2.0752 H   0  0  0  0  0  0  0  0  0  0  0  0
  1  2  1  0  0  0  0
  1  8  1  0  0  0  0
  1  9  1  0  0  0  0
  1 10  1  0  0  0  0
  2  3  1  0  0  0  0
  2  4  1  0  0  0  0
  2 11  1  0  0  0  0
  3 12  1  0  0  0  0
  3 13  1  0  0  0  0
  3 14  1  0  0  0  0
  4  5  1  0  0  0  0
  4  7  2  0  0  0  0
  5  6  1  0  0  0  0
  5 15  1  0  0  0  0
  5 16  1  0  0  0  0
  6 17  1  0  0  0  0
  6 18  1  0  0  0  0
  6 19  1  0  0  0  0
M  END
