./000565-75-3.hin
 OpenBabel09241315583D

 26 25  0  0  0  0  0  0  0  0999 V2000
  -29.9023    2.5230   41.2554 C   0  0  0  0  0  0  0  0  0  0  0  0
  -27.3654    6.6610   40.7156 C   0  0  0  0  0  0  0  0  0  0  0  0
  -30.1267    3.9433   40.7699 C   0  0  0  0  0  0  0  0  0  0  0  0
  -28.7543    6.0757   40.8817 C   0  0  0  0  0  0  0  0  0  0  0  0
  -28.7852    4.6094   40.4401 C   0  0  0  0  0  0  0  0  0  0  0  0
  -28.3885    4.4221   38.9925 C   0  0  0  0  0  0  0  0  0  0  0  0
  -27.9974    4.0890   41.0648 H   0  0  0  0  0  0  0  0  0  0  0  0
  -29.7707    6.9490   40.1795 C   0  0  0  0  0  0  0  0  0  0  0  0
  -30.6030    4.5236   41.6123 H   0  0  0  0  0  0  0  0  0  0  0  0
  -31.1001    3.9308   39.6094 C   0  0  0  0  0  0  0  0  0  0  0  0
  -27.3041    7.6514   41.2284 H   0  0  0  0  0  0  0  0  0  0  0  0
  -26.5967    5.9838   41.1591 H   0  0  0  0  0  0  0  0  0  0  0  0
  -27.1255    6.8117   39.6355 H   0  0  0  0  0  0  0  0  0  0  0  0
  -30.8807    2.0289   41.4682 H   0  0  0  0  0  0  0  0  0  0  0  0
  -29.3649    1.9252   40.4802 H   0  0  0  0  0  0  0  0  0  0  0  0
  -29.2932    2.5192   42.1911 H   0  0  0  0  0  0  0  0  0  0  0  0
  -29.6541    8.0102   40.5096 H   0  0  0  0  0  0  0  0  0  0  0  0
  -29.6361    6.9106   39.0719 H   0  0  0  0  0  0  0  0  0  0  0  0
  -30.8082    6.6171   40.4254 H   0  0  0  0  0  0  0  0  0  0  0  0
  -32.1030    3.5844   39.9592 H   0  0  0  0  0  0  0  0  0  0  0  0
  -31.2106    4.9512   39.1701 H   0  0  0  0  0  0  0  0  0  0  0  0
  -30.7522    3.2371   38.8061 H   0  0  0  0  0  0  0  0  0  0  0  0
  -28.9989    6.0872   41.9848 H   0  0  0  0  0  0  0  0  0  0  0  0
  -29.0614    4.9911   38.3074 H   0  0  0  0  0  0  0  0  0  0  0  0
  -27.3410    4.7752   38.8300 H   0  0  0  0  0  0  0  0  0  0  0  0
  -28.4404    3.3395   38.7198 H   0  0  0  0  0  0  0  0  0  0  0  0
  1  3  1  0  0  0  0
  1 14  1  0  0  0  0
  1 15  1  0  0  0  0
  1 16  1  0  0  0  0
  2  4  1  0  0  0  0
  2 11  1  0  0  0  0
  2 12  1  0  0  0  0
  2 13  1  0  0  0  0
  3  5  1  0  0  0  0
  3  9  1  0  0  0  0
  3 10  1  0  0  0  0
  4  5  1  0  0  0  0
  4  8  1  0  0  0  0
  4 23  1  0  0  0  0
  5  6  1  0  0  0  0
  5  7  1  0  0  0  0
  6 24  1  0  0  0  0
  6 25  1  0  0  0  0
  6 26  1  0  0  0  0
  8 17  1  0  0  0  0
  8 18  1  0  0  0  0
  8 19  1  0  0  0  0
 10 20  1  0  0  0  0
 10 21  1  0  0  0  0
 10 22  1  0  0  0  0
M  END
