./000565-80-0.hin
 OpenBabel09241315583D

 22 21  0  0  0  0  0  0  0  0999 V2000
   -2.8204  -13.1733   22.4481 C   0  0  0  0  0  0  0  0  0  0  0  0
   -4.2399  -13.4748   22.8826 C   0  0  0  0  0  0  0  0  0  0  0  0
   -1.5320  -10.9417   22.4481 C   0  0  0  0  0  0  0  0  0  0  0  0
   -1.9806   -9.5617   22.8826 C   0  0  0  0  0  0  0  0  0  0  0  0
   -3.5389  -11.2708   21.1631 O   0  0  0  0  0  0  0  0  0  0  0  0
   -2.6820   -9.6347   23.7479 H   0  0  0  0  0  0  0  0  0  0  0  0
   -1.0982   -8.9500   23.1877 H   0  0  0  0  0  0  0  0  0  0  0  0
   -4.5274  -12.8309   23.7479 H   0  0  0  0  0  0  0  0  0  0  0  0
   -4.9504  -13.2781   22.0429 H   0  0  0  0  0  0  0  0  0  0  0  0
   -0.4900  -10.8476   21.3509 C   0  0  0  0  0  0  0  0  0  0  0  0
   -2.3809  -14.1227   21.3509 C   0  0  0  0  0  0  0  0  0  0  0  0
   -4.3284  -14.5449   23.1876 H   0  0  0  0  0  0  0  0  0  0  0  0
   -2.5063   -9.0447   22.0430 H   0  0  0  0  0  0  0  0  0  0  0  0
   -0.1420  -11.8664   21.0540 H   0  0  0  0  0  0  0  0  0  0  0  0
   -0.9182  -10.3398   20.4528 H   0  0  0  0  0  0  0  0  0  0  0  0
    0.3888  -10.2600   21.7095 H   0  0  0  0  0  0  0  0  0  0  0  0
   -1.3246  -13.9147   21.0541 H   0  0  0  0  0  0  0  0  0  0  0  0
   -2.4504  -15.1776   21.7095 H   0  0  0  0  0  0  0  0  0  0  0  0
   -3.0348  -14.0059   20.4529 H   0  0  0  0  0  0  0  0  0  0  0  0
   -2.7144  -11.7468   21.9490 C   0  0  0  0  0  0  0  0  0  0  0  0
   -2.1383  -13.3072   23.3340 H   0  0  0  0  0  0  0  0  0  0  0  0
   -1.0750  -11.4655   23.3340 H   0  0  0  0  0  0  0  0  0  0  0  0
  1  2  1  0  0  0  0
  1 11  1  0  0  0  0
  1 20  1  0  0  0  0
  1 21  1  0  0  0  0
  2  8  1  0  0  0  0
  2  9  1  0  0  0  0
  2 12  1  0  0  0  0
  3  4  1  0  0  0  0
  3 10  1  0  0  0  0
  3 20  1  0  0  0  0
  3 22  1  0  0  0  0
  4  6  1  0  0  0  0
  4  7  1  0  0  0  0
  4 13  1  0  0  0  0
  5 20  2  0  0  0  0
 10 14  1  0  0  0  0
 10 15  1  0  0  0  0
 10 16  1  0  0  0  0
 11 17  1  0  0  0  0
 11 18  1  0  0  0  0
 11 19  1  0  0  0  0
M  END
