./000576-26-1.hin
 OpenBabel09241315583D

 19 19  0  0  0  0  0  0  0  0999 V2000
    8.3640    1.3361    9.9126 C   0  0  0  0  0  0  0  0  0  0  0  0
    8.3484    2.7333    9.9126 C   0  0  0  0  0  0  0  0  0  0  0  0
    9.5811    3.4182    9.9126 C   0  0  0  0  0  0  0  0  0  0  0  0
   10.8046    2.7202    9.9126 C   0  0  0  0  0  0  0  0  0  0  0  0
   10.7776    1.3223    9.9126 C   0  0  0  0  0  0  0  0  0  0  0  0
    9.5673    0.6341    9.9126 C   0  0  0  0  0  0  0  0  0  0  0  0
   11.7256    0.7633    9.9126 H   0  0  0  0  0  0  0  0  0  0  0  0
   12.0978    3.4416    9.9126 C   0  0  0  0  0  0  0  0  0  0  0  0
    9.5613   -0.4654    9.9126 H   0  0  0  0  0  0  0  0  0  0  0  0
    9.5113    4.7949    9.9126 O   0  0  0  0  0  0  0  0  0  0  0  0
   10.4127    5.1466    9.9126 H   0  0  0  0  0  0  0  0  0  0  0  0
    7.0588    3.4606    9.9126 C   0  0  0  0  0  0  0  0  0  0  0  0
    7.4081    0.7906    9.9126 H   0  0  0  0  0  0  0  0  0  0  0  0
   12.9565    2.7263    9.9126 H   0  0  0  0  0  0  0  0  0  0  0  0
   12.1872    4.0903    9.0044 H   0  0  0  0  0  0  0  0  0  0  0  0
   12.1872    4.0903   10.8207 H   0  0  0  0  0  0  0  0  0  0  0  0
    7.2144    4.5675    9.9126 H   0  0  0  0  0  0  0  0  0  0  0  0
    6.4628    3.1871    9.0061 H   0  0  0  0  0  0  0  0  0  0  0  0
    6.4628    3.1871   10.8190 H   0  0  0  0  0  0  0  0  0  0  0  0
  1  2  2  0  0  0  0
  1  6  1  0  0  0  0
  1 13  1  0  0  0  0
  2  3  1  0  0  0  0
  2 12  1  0  0  0  0
  3  4  2  0  0  0  0
  3 10  1  0  0  0  0
  4  5  1  0  0  0  0
  4  8  1  0  0  0  0
  5  6  2  0  0  0  0
  5  7  1  0  0  0  0
  6  9  1  0  0  0  0
  8 14  1  0  0  0  0
  8 15  1  0  0  0  0
  8 16  1  0  0  0  0
 10 11  1  0  0  0  0
 12 17  1  0  0  0  0
 12 18  1  0  0  0  0
 12 19  1  0  0  0  0
M  END
