./000584-02-1.hin
 OpenBabel09241315583D

 18 17  0  0  0  0  0  0  0  0999 V2000
   -3.6980  -14.8753   24.7882 C   0  0  0  0  0  0  0  0  0  0  0  0
   -3.6789  -13.3513   24.8779 C   0  0  0  0  0  0  0  0  0  0  0  0
   -5.0993  -15.4031   24.6258 C   0  0  0  0  0  0  0  0  0  0  0  0
   -2.2500  -12.8184   24.8045 C   0  0  0  0  0  0  0  0  0  0  0  0
   -4.2892  -12.9121   24.0375 H   0  0  0  0  0  0  0  0  0  0  0  0
   -4.2909  -13.0123   26.1181 O   0  0  0  0  0  0  0  0  0  0  0  0
   -3.0657  -15.1890   23.9176 H   0  0  0  0  0  0  0  0  0  0  0  0
   -3.2391  -15.2976   25.7200 H   0  0  0  0  0  0  0  0  0  0  0  0
   -2.2078  -11.3248   24.6147 C   0  0  0  0  0  0  0  0  0  0  0  0
   -1.7107  -13.0982   25.7472 H   0  0  0  0  0  0  0  0  0  0  0  0
   -1.7226  -13.3174   23.9502 H   0  0  0  0  0  0  0  0  0  0  0  0
   -1.1505  -10.9782   24.5169 H   0  0  0  0  0  0  0  0  0  0  0  0
   -2.7628  -11.0260   23.6925 H   0  0  0  0  0  0  0  0  0  0  0  0
   -2.6662  -10.7975   25.4866 H   0  0  0  0  0  0  0  0  0  0  0  0
   -5.0943  -16.5195   24.6195 H   0  0  0  0  0  0  0  0  0  0  0  0
   -5.7423  -15.0513   25.4692 H   0  0  0  0  0  0  0  0  0  0  0  0
   -5.5489  -15.0458   23.6679 H   0  0  0  0  0  0  0  0  0  0  0  0
   -4.2471  -12.0523   26.1959 H   0  0  0  0  0  0  0  0  0  0  0  0
  1  2  1  0  0  0  0
  1  3  1  0  0  0  0
  1  7  1  0  0  0  0
  1  8  1  0  0  0  0
  2  4  1  0  0  0  0
  2  5  1  0  0  0  0
  2  6  1  0  0  0  0
  3 15  1  0  0  0  0
  3 16  1  0  0  0  0
  3 17  1  0  0  0  0
  4  9  1  0  0  0  0
  4 10  1  0  0  0  0
  4 11  1  0  0  0  0
  6 18  1  0  0  0  0
  9 12  1  0  0  0  0
  9 13  1  0  0  0  0
  9 14  1  0  0  0  0
M  END
