./000591-49-1.hin
 OpenBabel09241315583D

 19 19  0  0  0  0  0  0  0  0999 V2000
   -0.9079    6.7228  -14.9196 C   0  0  0  0  0  0  0  0  0  0  0  0
   -3.5609    7.1252  -12.1837 C   0  0  0  0  0  0  0  0  0  0  0  0
   -2.2113    9.2269  -12.2827 C   0  0  0  0  0  0  0  0  0  0  0  0
   -1.4112    8.5555  -13.3343 C   0  0  0  0  0  0  0  0  0  0  0  0
   -3.6010    8.6378  -12.1366 C   0  0  0  0  0  0  0  0  0  0  0  0
   -1.7373    7.3734  -13.8780 C   0  0  0  0  0  0  0  0  0  0  0  0
   -2.9702    6.6317  -13.4897 C   0  0  0  0  0  0  0  0  0  0  0  0
   -4.5970    6.7146  -12.0642 H   0  0  0  0  0  0  0  0  0  0  0  0
   -2.9462    6.7432  -11.3268 H   0  0  0  0  0  0  0  0  0  0  0  0
   -2.2940   10.3223  -12.5164 H   0  0  0  0  0  0  0  0  0  0  0  0
   -1.6607    9.1388  -11.3058 H   0  0  0  0  0  0  0  0  0  0  0  0
   -0.4980    9.0889  -13.6431 H   0  0  0  0  0  0  0  0  0  0  0  0
   -4.2573    9.0175  -12.9632 H   0  0  0  0  0  0  0  0  0  0  0  0
   -4.0517    8.9754  -11.1676 H   0  0  0  0  0  0  0  0  0  0  0  0
   -2.7391    5.5363  -13.4040 H   0  0  0  0  0  0  0  0  0  0  0  0
   -3.7270    6.7473  -14.3131 H   0  0  0  0  0  0  0  0  0  0  0  0
   -0.4857    5.7628  -14.5293 H   0  0  0  0  0  0  0  0  0  0  0  0
   -1.5317    6.4888  -15.8182 H   0  0  0  0  0  0  0  0  0  0  0  0
   -0.0597    7.3766  -15.2382 H   0  0  0  0  0  0  0  0  0  0  0  0
  1  6  1  0  0  0  0
  1 17  1  0  0  0  0
  1 18  1  0  0  0  0
  1 19  1  0  0  0  0
  2  5  1  0  0  0  0
  2  7  1  0  0  0  0
  2  8  1  0  0  0  0
  2  9  1  0  0  0  0
  3  4  1  0  0  0  0
  3  5  1  0  0  0  0
  3 10  1  0  0  0  0
  3 11  1  0  0  0  0
  4  6  2  0  0  0  0
  4 12  1  0  0  0  0
  5 13  1  0  0  0  0
  5 14  1  0  0  0  0
  6  7  1  0  0  0  0
  7 15  1  0  0  0  0
  7 16  1  0  0  0  0
M  END
