./000591-95-7.hin
 OpenBabel09241315583D

 13 12  0  0  0  0  0  0  0  0999 V2000
   -0.4543    3.2361   13.9940 C   0  0  0  0  0  0  0  0  0  0  0  0
   -4.0621    5.1395   16.5776 C   0  0  0  0  0  0  0  0  0  0  0  0
   -3.2871    4.8019   15.5935 C   0  0  0  0  0  0  0  0  0  0  0  0
   -2.5224    4.4592   14.5953 C   0  0  0  0  0  0  0  0  0  0  0  0
   -4.4295    4.4094   17.3134 H   0  0  0  0  0  0  0  0  0  0  0  0
   -4.3977    6.1753   16.7329 H   0  0  0  0  0  0  0  0  0  0  0  0
   -1.0377    4.4682   14.6414 C   0  0  0  0  0  0  0  0  0  0  0  0
   -2.9677    4.1458   13.6339 H   0  0  0  0  0  0  0  0  0  0  0  0
   -0.6722    5.3846   14.1009 H   0  0  0  0  0  0  0  0  0  0  0  0
   -0.6756    4.5437   15.7013 H   0  0  0  0  0  0  0  0  0  0  0  0
    0.6611    3.2771   14.0283 H   0  0  0  0  0  0  0  0  0  0  0  0
   -0.7910    2.3141   14.5263 H   0  0  0  0  0  0  0  0  0  0  0  0
   -0.7732    3.1609   12.9264 H   0  0  0  0  0  0  0  0  0  0  0  0
  1  7  1  0  0  0  0
  1 11  1  0  0  0  0
  1 12  1  0  0  0  0
  1 13  1  0  0  0  0
  2  3  2  0  0  0  0
  2  5  1  0  0  0  0
  2  6  1  0  0  0  0
  3  4  2  0  0  0  0
  4  7  1  0  0  0  0
  4  8  1  0  0  0  0
  7  9  1  0  0  0  0
  7 10  1  0  0  0  0
M  END
