./000592-48-3.hin
 OpenBabel09241315583D

 16 15  0  0  0  0  0  0  0  0999 V2000
   -1.8153   -4.3031    6.6858 H   0  0  0  0  0  0  0  0  0  0  0  0
   -3.1425   -1.8312    5.7833 H   0  0  0  0  0  0  0  0  0  0  0  0
   -3.1425   -1.8312    7.5883 H   0  0  0  0  0  0  0  0  0  0  0  0
   -4.2453   -3.4548    6.6858 C   0  0  0  0  0  0  0  0  0  0  0  0
   -3.0783   -2.4991    6.6858 C   0  0  0  0  0  0  0  0  0  0  0  0
    0.6413   -4.3395    6.6858 H   0  0  0  0  0  0  0  0  0  0  0  0
    0.6809   -3.2358    6.6858 C   0  0  0  0  0  0  0  0  0  0  0  0
    1.8538   -2.5978    6.6858 C   0  0  0  0  0  0  0  0  0  0  0  0
   -0.5983   -2.5548    6.6858 C   0  0  0  0  0  0  0  0  0  0  0  0
   -1.7728   -3.2014    6.6858 C   0  0  0  0  0  0  0  0  0  0  0  0
   -0.5635   -1.4516    6.6858 H   0  0  0  0  0  0  0  0  0  0  0  0
    2.8100   -3.1361    6.6858 H   0  0  0  0  0  0  0  0  0  0  0  0
    1.9353   -1.5032    6.6858 H   0  0  0  0  0  0  0  0  0  0  0  0
   -5.2072   -2.8877    6.6858 H   0  0  0  0  0  0  0  0  0  0  0  0
   -4.2205   -4.1085    5.7807 H   0  0  0  0  0  0  0  0  0  0  0  0
   -4.2205   -4.1085    7.5909 H   0  0  0  0  0  0  0  0  0  0  0  0
  1 10  1  0  0  0  0
  2  5  1  0  0  0  0
  3  5  1  0  0  0  0
  4  5  1  0  0  0  0
  4 14  1  0  0  0  0
  4 15  1  0  0  0  0
  4 16  1  0  0  0  0
  5 10  1  0  0  0  0
  6  7  1  0  0  0  0
  7  8  2  0  0  0  0
  7  9  1  0  0  0  0
  8 12  1  0  0  0  0
  8 13  1  0  0  0  0
  9 10  2  0  0  0  0
  9 11  1  0  0  0  0
M  END
