./000592-90-5.hin
 OpenBabel09241315583D

 19 19  0  0  0  0  0  0  0  0999 V2000
   -0.5990  -15.9763   26.8724 C   0  0  0  0  0  0  0  0  0  0  0  0
    0.7486  -16.6038   26.5750 C   0  0  0  0  0  0  0  0  0  0  0  0
    0.9617  -15.3090   24.5639 C   0  0  0  0  0  0  0  0  0  0  0  0
    1.4705  -14.1164   25.3495 C   0  0  0  0  0  0  0  0  0  0  0  0
    1.1341  -16.5615   25.2094 O   0  0  0  0  0  0  0  0  0  0  0  0
    1.5554  -15.4263   23.6147 H   0  0  0  0  0  0  0  0  0  0  0  0
   -0.1229  -15.1812   24.3014 H   0  0  0  0  0  0  0  0  0  0  0  0
   -0.8659  -16.2453   27.9293 H   0  0  0  0  0  0  0  0  0  0  0  0
   -1.3697  -16.4468   26.2059 H   0  0  0  0  0  0  0  0  0  0  0  0
    0.7172  -17.7068   26.7982 H   0  0  0  0  0  0  0  0  0  0  0  0
    1.5558  -16.1298   27.1958 H   0  0  0  0  0  0  0  0  0  0  0  0
    1.4531  -13.2309   24.6594 H   0  0  0  0  0  0  0  0  0  0  0  0
    2.5424  -14.2994   25.6269 H   0  0  0  0  0  0  0  0  0  0  0  0
    0.6848  -13.7856   26.6043 C   0  0  0  0  0  0  0  0  0  0  0  0
    0.5173  -12.6749   26.6401 H   0  0  0  0  0  0  0  0  0  0  0  0
    1.2984  -14.0418   27.5091 H   0  0  0  0  0  0  0  0  0  0  0  0
   -0.6602  -14.4691   26.7113 C   0  0  0  0  0  0  0  0  0  0  0  0
   -1.2735  -14.2135   25.8061 H   0  0  0  0  0  0  0  0  0  0  0  0
   -1.2041  -14.0360   27.5943 H   0  0  0  0  0  0  0  0  0  0  0  0
  1  2  1  0  0  0  0
  1  8  1  0  0  0  0
  1  9  1  0  0  0  0
  1 17  1  0  0  0  0
  2  5  1  0  0  0  0
  2 10  1  0  0  0  0
  2 11  1  0  0  0  0
  3  4  1  0  0  0  0
  3  5  1  0  0  0  0
  3  6  1  0  0  0  0
  3  7  1  0  0  0  0
  4 12  1  0  0  0  0
  4 13  1  0  0  0  0
  4 14  1  0  0  0  0
 14 15  1  0  0  0  0
 14 16  1  0  0  0  0
 14 17  1  0  0  0  0
 17 18  1  0  0  0  0
 17 19  1  0  0  0  0
M  END
