./000593-53-3.hin
 OpenBabel09241315583D

  5  4  0  0  0  0  0  0  0  0999 V2000
   -0.8618    0.8791    0.0000 F   0  0  0  0  0  0  0  0  0  0  0  0
   -0.8618    2.2542   -0.0000 C   0  0  0  0  0  0  0  0  0  0  0  0
    0.1948    2.6281    0.0000 H   0  0  0  0  0  0  0  0  0  0  0  0
   -1.3900    2.6281   -0.9150 H   0  0  0  0  0  0  0  0  0  0  0  0
   -1.3900    2.6281    0.9150 H   0  0  0  0  0  0  0  0  0  0  0  0
  1  2  1  0  0  0  0
  2  3  1  0  0  0  0
  2  4  1  0  0  0  0
  2  5  1  0  0  0  0
M  END
