./000593-60-2.hin
 OpenBabel09241315583D

  6  5  0  0  0  0  0  0  0  0999 V2000
   -2.5767    0.7734   -0.0000 Br  0  0  0  0  0  0  0  0  0  0  0  0
   -2.4441    2.6285    0.0000 C   0  0  0  0  0  0  0  0  0  0  0  0
   -1.3066    3.3134   -0.0000 C   0  0  0  0  0  0  0  0  0  0  0  0
   -3.4286    3.1151   -0.0000 H   0  0  0  0  0  0  0  0  0  0  0  0
   -1.3021    4.4134   -0.0000 H   0  0  0  0  0  0  0  0  0  0  0  0
   -0.3118    2.8471    0.0000 H   0  0  0  0  0  0  0  0  0  0  0  0
  1  2  1  0  0  0  0
  2  3  2  0  0  0  0
  2  4  1  0  0  0  0
  3  5  1  0  0  0  0
  3  6  1  0  0  0  0
M  END
