./000594-82-1.hin
 OpenBabel09241315583D

 26 25  0  0  0  0  0  0  0  0999 V2000
   -2.8959    0.4403    0.6743 C   0  0  0  0  0  0  0  0  0  0  0  0
   -2.8284    1.9964   -1.9058 C   0  0  0  0  0  0  0  0  0  0  0  0
   -4.3180    2.4514    0.6743 C   0  0  0  0  0  0  0  0  0  0  0  0
   -2.8716    1.9659    0.6322 C   0  0  0  0  0  0  0  0  0  0  0  0
   -2.1417    2.4820   -0.6322 C   0  0  0  0  0  0  0  0  0  0  0  0
   -0.6953    1.9964   -0.6743 C   0  0  0  0  0  0  0  0  0  0  0  0
   -2.1174    4.0076   -0.6743 C   0  0  0  0  0  0  0  0  0  0  0  0
   -2.1849    2.4515    1.9058 C   0  0  0  0  0  0  0  0  0  0  0  0
   -1.8613    0.0244    0.6984 H   0  0  0  0  0  0  0  0  0  0  0  0
   -3.4281    0.0988    1.5961 H   0  0  0  0  0  0  0  0  0  0  0  0
   -3.4342    0.0244   -0.2097 H   0  0  0  0  0  0  0  0  0  0  0  0
   -2.2798    2.3843   -2.7992 H   0  0  0  0  0  0  0  0  0  0  0  0
   -2.8311    0.8823   -1.9588 H   0  0  0  0  0  0  0  0  0  0  0  0
   -3.8797    2.3652   -1.9588 H   0  0  0  0  0  0  0  0  0  0  0  0
   -4.8174    2.0635    1.5961 H   0  0  0  0  0  0  0  0  0  0  0  0
   -4.3652    3.5656    0.6984 H   0  0  0  0  0  0  0  0  0  0  0  0
   -4.8895    2.0826   -0.2097 H   0  0  0  0  0  0  0  0  0  0  0  0
   -0.1959    2.3843   -1.5961 H   0  0  0  0  0  0  0  0  0  0  0  0
   -0.1237    2.3653    0.2097 H   0  0  0  0  0  0  0  0  0  0  0  0
   -0.6480    0.8823   -0.6984 H   0  0  0  0  0  0  0  0  0  0  0  0
   -1.5852    4.3491   -1.5961 H   0  0  0  0  0  0  0  0  0  0  0  0
   -3.1520    4.4234   -0.6985 H   0  0  0  0  0  0  0  0  0  0  0  0
   -1.5791    4.4235    0.2097 H   0  0  0  0  0  0  0  0  0  0  0  0
   -1.1336    2.0826    1.9588 H   0  0  0  0  0  0  0  0  0  0  0  0
   -2.1822    3.5656    1.9588 H   0  0  0  0  0  0  0  0  0  0  0  0
   -2.7335    2.0636    2.7992 H   0  0  0  0  0  0  0  0  0  0  0  0
  1  4  1  0  0  0  0
  1  9  1  0  0  0  0
  1 10  1  0  0  0  0
  1 11  1  0  0  0  0
  2  5  1  0  0  0  0
  2 12  1  0  0  0  0
  2 13  1  0  0  0  0
  2 14  1  0  0  0  0
  3  4  1  0  0  0  0
  3 15  1  0  0  0  0
  3 16  1  0  0  0  0
  3 17  1  0  0  0  0
  4  5  1  0  0  0  0
  4  8  1  0  0  0  0
  5  6  1  0  0  0  0
  5  7  1  0  0  0  0
  6 18  1  0  0  0  0
  6 19  1  0  0  0  0
  6 20  1  0  0  0  0
  7 21  1  0  0  0  0
  7 22  1  0  0  0  0
  7 23  1  0  0  0  0
  8 24  1  0  0  0  0
  8 25  1  0  0  0  0
  8 26  1  0  0  0  0
M  END
