./000626-93-7.hin
 OpenBabel09241315583D

 21 20  0  0  1  0  0  0  0  0999 V2000
  -43.8184    8.5420   48.2952 C   0  0  2  0  0  0  0  0  0  0  0  0
  -44.0734    7.7118   47.0408 C   0  0  0  0  0  0  0  0  0  0  0  0
  -43.3391    8.2941   43.3173 C   0  0  0  0  0  0  0  0  0  0  0  0
  -43.5957    8.4282   45.7971 C   0  0  0  0  0  0  0  0  0  0  0  0
  -43.8010    7.5792   44.5607 C   0  0  0  0  0  0  0  0  0  0  0  0
  -44.8876    7.3163   44.4629 H   0  0  0  0  0  0  0  0  0  0  0  0
  -43.2372    6.6153   44.6722 H   0  0  0  0  0  0  0  0  0  0  0  0
  -42.5073    8.6767   45.9130 H   0  0  0  0  0  0  0  0  0  0  0  0
  -44.1481    9.3979   45.6827 H   0  0  0  0  0  0  0  0  0  0  0  0
  -42.2531    8.5452   43.3881 H   0  0  0  0  0  0  0  0  0  0  0  0
  -43.4948    7.6502   42.4184 H   0  0  0  0  0  0  0  0  0  0  0  0
  -45.1724    7.5052   46.9677 H   0  0  0  0  0  0  0  0  0  0  0  0
  -42.4092    8.5439   48.5058 O   0  0  0  0  0  0  0  0  0  0  0  0
  -44.1601    9.6037   48.1262 H   0  0  0  0  0  0  0  0  0  0  0  0
  -44.5441    7.9595   49.4948 C   0  0  0  0  0  0  0  0  0  0  0  0
  -44.3362    8.5684   50.4072 H   0  0  0  0  0  0  0  0  0  0  0  0
  -43.5415    6.7298   47.1398 H   0  0  0  0  0  0  0  0  0  0  0  0
  -42.2531    9.0105   49.3347 H   0  0  0  0  0  0  0  0  0  0  0  0
  -45.6444    7.9533   49.3117 H   0  0  0  0  0  0  0  0  0  0  0  0
  -44.2029    6.9134   49.6822 H   0  0  0  0  0  0  0  0  0  0  0  0
  -43.9088    9.2441   43.1737 H   0  0  0  0  0  0  0  0  0  0  0  0
  1  2  1  0  0  0  0
  1 13  1  0  0  0  0
  1 14  1  6  0  0  0
  1 15  1  0  0  0  0
  2  4  1  0  0  0  0
  2 12  1  0  0  0  0
  2 17  1  0  0  0  0
  3  5  1  0  0  0  0
  3 10  1  0  0  0  0
  3 11  1  0  0  0  0
  3 21  1  0  0  0  0
  4  5  1  0  0  0  0
  4  8  1  0  0  0  0
  4  9  1  0  0  0  0
  5  6  1  0  0  0  0
  5  7  1  0  0  0  0
 13 18  1  0  0  0  0
 15 16  1  0  0  0  0
 15 19  1  0  0  0  0
 15 20  1  0  0  0  0
M  END
