./000627-05-4.hin
  ACCLDraw05131601153D

 16 15  0  0  0  0  0  0  0  0999 V2000
    3.6223    0.2067    0.3028 O   0  0  0  0  0  0  0  0  0  0  0  0
    4.5376    3.7055    0.1816 C   0  0  3  0  0  0  0  0  0  0  0  0
    4.7908    2.2129    0.0796 C   0  0  3  0  0  0  0  0  0  0  0  0
    3.5232    1.3815    0.0715 N   0  3  0  0  0  0  0  0  0  0  0  0
    2.4708    1.9020   -0.1742 O   0  5  0  0  0  0  0  0  0  0  0  0
    5.8567    4.4494    0.1470 C   0  0  3  0  0  0  0  0  0  0  0  0
    3.8821    4.0430   -0.6650 H   0  0  0  0  0  0  0  0  0  0  0  0
    3.9912    3.9386    1.1334 H   0  0  0  0  0  0  0  0  0  0  0  0
    5.3219    1.9620   -0.8797 H   0  0  0  0  0  0  0  0  0  0  0  0
    5.4052    1.8445    0.9463 H   0  0  0  0  0  0  0  0  0  0  0  0
    6.5050    4.1074    0.9968 H   0  0  0  0  0  0  0  0  0  0  0  0
    6.4009    4.2082   -0.8044 H   0  0  0  0  0  0  0  0  0  0  0  0
    5.6398    5.9378    0.2425 C   0  0  3  0  0  0  0  0  0  0  0  0
    6.6204    6.4715    0.2184 H   0  0  0  0  0  0  0  0  0  0  0  0
    5.0180    6.3016   -0.6110 H   0  0  0  0  0  0  0  0  0  0  0  0
    5.1173    6.2006    1.1941 H   0  0  0  0  0  0  0  0  0  0  0  0
  1  4  2  0  0  0  0
  2  3  1  0  0  0  0
  2  6  1  0  0  0  0
  2  7  1  0  0  0  0
  2  8  1  0  0  0  0
  3  4  1  0  0  0  0
  3  9  1  0  0  0  0
  3 10  1  0  0  0  0
  4  5  1  0  0  0  0
  6 11  1  0  0  0  0
  6 12  1  0  0  0  0
  6 13  1  0  0  0  0
 13 14  1  0  0  0  0
 13 15  1  0  0  0  0
 13 16  1  0  0  0  0
M  CHG  2   4   1   5  -1
M  END