./000627-13-4.hin
 OpenBabel09241315583D

 14 13  0  0  0  0  0  0  0  0999 V2000
  -11.4642    0.4759   30.7331 C   0  0  0  0  0  0  0  0  0  0  0  0
  -11.4154    1.9740   30.9667 C   0  0  0  0  0  0  0  0  0  0  0  0
  -12.1556   -0.0465   31.9066 O   0  0  0  0  0  0  0  0  0  0  0  0
  -12.3589   -1.3684   31.9986 N   0  3  0  0  0  0  0  0  0  0  0  0
  -12.9290   -1.6967   32.9882 O   0  0  0  0  0  0  0  0  0  0  0  0
  -11.9594   -2.0533   31.1069 O   0  5  0  0  0  0  0  0  0  0  0  0
  -12.0500    0.2088   29.8166 H   0  0  0  0  0  0  0  0  0  0  0  0
  -12.4594    2.3689   31.0775 H   0  0  0  0  0  0  0  0  0  0  0  0
  -10.8765    2.1848   31.9276 H   0  0  0  0  0  0  0  0  0  0  0  0
  -10.7182    2.6504   29.8149 C   0  0  0  0  0  0  0  0  0  0  0  0
  -10.4417    0.0217   30.6809 H   0  0  0  0  0  0  0  0  0  0  0  0
  -10.6835    3.7532   29.9893 H   0  0  0  0  0  0  0  0  0  0  0  0
   -9.6710    2.2764   29.7089 H   0  0  0  0  0  0  0  0  0  0  0  0
  -11.2591    2.4612   28.8561 H   0  0  0  0  0  0  0  0  0  0  0  0
  1  2  1  0  0  0  0
  1  3  1  0  0  0  0
  1  7  1  0  0  0  0
  1 11  1  0  0  0  0
  2  8  1  0  0  0  0
  2  9  1  0  0  0  0
  2 10  1  0  0  0  0
  3  4  1  0  0  0  0
  4  5  2  0  0  0  0
  4  6  1  0  0  0  0
 10 12  1  0  0  0  0
 10 13  1  0  0  0  0
 10 14  1  0  0  0  0
M  CHG   2   4   1   6  -1
M  END