./000628-81-9.hin
 OpenBabel09241315583D

 21 20  0  0  0  0  0  0  0  0999 V2000
   -0.8920  -16.1992   23.7438 C   0  0  0  0  0  0  0  0  0  0  0  0
   -2.3137  -14.3062   23.7438 C   0  0  0  0  0  0  0  0  0  0  0  0
   -2.2472  -12.7894   23.7438 C   0  0  0  0  0  0  0  0  0  0  0  0
   -0.9671  -14.7747   23.7438 O   0  0  0  0  0  0  0  0  0  0  0  0
   -3.6395  -12.1974   23.7438 C   0  0  0  0  0  0  0  0  0  0  0  0
   -1.6789  -12.4432   24.6460 H   0  0  0  0  0  0  0  0  0  0  0  0
   -1.6789  -12.4432   22.8417 H   0  0  0  0  0  0  0  0  0  0  0  0
   -2.8454  -14.6858   24.6571 H   0  0  0  0  0  0  0  0  0  0  0  0
   -2.8454  -14.6858   22.8306 H   0  0  0  0  0  0  0  0  0  0  0  0
    0.5748  -16.5616   23.7438 C   0  0  0  0  0  0  0  0  0  0  0  0
   -3.5948  -10.6912   23.7438 C   0  0  0  0  0  0  0  0  0  0  0  0
   -4.2005  -12.5577   22.8410 H   0  0  0  0  0  0  0  0  0  0  0  0
   -4.2005  -12.5577   24.6467 H   0  0  0  0  0  0  0  0  0  0  0  0
   -4.6301  -10.2726   23.7438 H   0  0  0  0  0  0  0  0  0  0  0  0
   -3.0607  -10.3127   24.6488 H   0  0  0  0  0  0  0  0  0  0  0  0
   -3.0607  -10.3127   22.8389 H   0  0  0  0  0  0  0  0  0  0  0  0
   -1.4077  -16.6016   24.6569 H   0  0  0  0  0  0  0  0  0  0  0  0
   -1.4077  -16.6016   22.8308 H   0  0  0  0  0  0  0  0  0  0  0  0
    0.6813  -17.6721   23.7438 H   0  0  0  0  0  0  0  0  0  0  0  0
    1.0784  -16.1446   22.8394 H   0  0  0  0  0  0  0  0  0  0  0  0
    1.0784  -16.1446   24.6483 H   0  0  0  0  0  0  0  0  0  0  0  0
  1  4  1  0  0  0  0
  1 10  1  0  0  0  0
  1 17  1  0  0  0  0
  1 18  1  0  0  0  0
  2  3  1  0  0  0  0
  2  4  1  0  0  0  0
  2  8  1  0  0  0  0
  2  9  1  0  0  0  0
  3  5  1  0  0  0  0
  3  6  1  0  0  0  0
  3  7  1  0  0  0  0
  5 11  1  0  0  0  0
  5 12  1  0  0  0  0
  5 13  1  0  0  0  0
 10 19  1  0  0  0  0
 10 20  1  0  0  0  0
 10 21  1  0  0  0  0
 11 14  1  0  0  0  0
 11 15  1  0  0  0  0
 11 16  1  0  0  0  0
M  END
