./000674-76-0.hin
 OpenBabel09241315583D

 18 17  0  0  0  0  0  0  0  0999 V2000
   -7.6236   -1.6564   -3.4789 C   0  0  0  0  0  0  0  0  0  0  0  0
   -4.0124   -0.9448   -0.4513 C   0  0  0  0  0  0  0  0  0  0  0  0
   -4.8928   -0.5342   -1.5624 C   0  0  0  0  0  0  0  0  0  0  0  0
   -6.1878   -0.8513   -1.6418 C   0  0  0  0  0  0  0  0  0  0  0  0
   -7.0750   -0.4354   -2.7650 C   0  0  0  0  0  0  0  0  0  0  0  0
   -8.2099    0.4265   -2.2445 C   0  0  0  0  0  0  0  0  0  0  0  0
   -3.1610   -1.5569   -0.8425 H   0  0  0  0  0  0  0  0  0  0  0  0
   -3.5867   -0.0420    0.0548 H   0  0  0  0  0  0  0  0  0  0  0  0
   -4.5586   -1.5508    0.3126 H   0  0  0  0  0  0  0  0  0  0  0  0
   -6.6811   -1.4527   -0.8607 H   0  0  0  0  0  0  0  0  0  0  0  0
   -6.4828    0.1720   -3.5086 H   0  0  0  0  0  0  0  0  0  0  0  0
   -7.8070    1.3369   -1.7401 H   0  0  0  0  0  0  0  0  0  0  0  0
   -8.8667    0.7463   -3.0888 H   0  0  0  0  0  0  0  0  0  0  0  0
   -8.8289   -0.1416   -1.5093 H   0  0  0  0  0  0  0  0  0  0  0  0
   -8.2261   -2.2830   -2.7783 H   0  0  0  0  0  0  0  0  0  0  0  0
   -6.7894   -2.2784   -3.8826 H   0  0  0  0  0  0  0  0  0  0  0  0
   -8.2787   -1.3426   -4.3268 H   0  0  0  0  0  0  0  0  0  0  0  0
   -4.4049    0.0680   -2.3473 H   0  0  0  0  0  0  0  0  0  0  0  0
  1  5  1  0  0  0  0
  1 15  1  0  0  0  0
  1 16  1  0  0  0  0
  1 17  1  0  0  0  0
  2  3  1  0  0  0  0
  2  7  1  0  0  0  0
  2  8  1  0  0  0  0
  2  9  1  0  0  0  0
  3  4  2  0  0  0  0
  3 18  1  0  0  0  0
  4  5  1  0  0  0  0
  4 10  1  0  0  0  0
  5  6  1  0  0  0  0
  5 11  1  0  0  0  0
  6 12  1  0  0  0  0
  6 13  1  0  0  0  0
  6 14  1  0  0  0  0
M  END
