./000693-54-9.hin
 OpenBabel09241315583D

 31 30  0  0  0  0  0  0  0  0999 V2000
    3.3675   -5.1704    0.0000 C   0  0  0  0  0  0  0  0  0  0  0  0
    3.3189   -3.6644    0.0000 C   0  0  0  0  0  0  0  0  0  0  0  0
    1.8934   -3.1545   -0.0000 C   0  0  0  0  0  0  0  0  0  0  0  0
    1.8492   -1.6416    0.0000 C   0  0  0  0  0  0  0  0  0  0  0  0
    0.4233   -1.1339   -0.0000 C   0  0  0  0  0  0  0  0  0  0  0  0
    0.3791    0.3792    0.0000 C   0  0  0  0  0  0  0  0  0  0  0  0
   -1.0475    0.8834   -0.0000 C   0  0  0  0  0  0  0  0  0  0  0  0
   -1.0929    2.3951    0.0000 C   0  0  0  0  0  0  0  0  0  0  0  0
   -2.4944    2.9355   -0.0000 C   0  0  0  0  0  0  0  0  0  0  0  0
   -2.5906    4.4288    0.0000 C   0  0  0  0  0  0  0  0  0  0  0  0
   -3.4965    2.2140   -0.0000 O   0  0  0  0  0  0  0  0  0  0  0  0
    4.4265   -5.5249    0.0000 H   0  0  0  0  0  0  0  0  0  0  0  0
    2.8580   -5.5815    0.9049 H   0  0  0  0  0  0  0  0  0  0  0  0
    2.8580   -5.5815   -0.9049 H   0  0  0  0  0  0  0  0  0  0  0  0
    3.8566   -3.2699    0.9025 H   0  0  0  0  0  0  0  0  0  0  0  0
    3.8566   -3.2699   -0.9025 H   0  0  0  0  0  0  0  0  0  0  0  0
    1.3545   -3.5467   -0.9025 H   0  0  0  0  0  0  0  0  0  0  0  0
    1.3545   -3.5467    0.9025 H   0  0  0  0  0  0  0  0  0  0  0  0
    2.3883   -1.2497    0.9026 H   0  0  0  0  0  0  0  0  0  0  0  0
    2.3883   -1.2497   -0.9026 H   0  0  0  0  0  0  0  0  0  0  0  0
   -0.1160   -1.5255   -0.9026 H   0  0  0  0  0  0  0  0  0  0  0  0
   -0.1160   -1.5255    0.9026 H   0  0  0  0  0  0  0  0  0  0  0  0
    0.9182    0.7709    0.9028 H   0  0  0  0  0  0  0  0  0  0  0  0
    0.9182    0.7709   -0.9027 H   0  0  0  0  0  0  0  0  0  0  0  0
   -1.5924    0.4947   -0.9006 H   0  0  0  0  0  0  0  0  0  0  0  0
   -1.5924    0.4947    0.9006 H   0  0  0  0  0  0  0  0  0  0  0  0
   -0.5605    2.7945    0.9044 H   0  0  0  0  0  0  0  0  0  0  0  0
   -0.5605    2.7945   -0.9044 H   0  0  0  0  0  0  0  0  0  0  0  0
   -3.6581    4.7578   -0.0000 H   0  0  0  0  0  0  0  0  0  0  0  0
   -2.0850    4.8397    0.9073 H   0  0  0  0  0  0  0  0  0  0  0  0
   -2.0850    4.8397   -0.9073 H   0  0  0  0  0  0  0  0  0  0  0  0
  1  2  1  0  0  0  0
  1 12  1  0  0  0  0
  1 13  1  0  0  0  0
  1 14  1  0  0  0  0
  2  3  1  0  0  0  0
  2 15  1  0  0  0  0
  2 16  1  0  0  0  0
  3  4  1  0  0  0  0
  3 17  1  0  0  0  0
  3 18  1  0  0  0  0
  4  5  1  0  0  0  0
  4 19  1  0  0  0  0
  4 20  1  0  0  0  0
  5  6  1  0  0  0  0
  5 21  1  0  0  0  0
  5 22  1  0  0  0  0
  6  7  1  0  0  0  0
  6 23  1  0  0  0  0
  6 24  1  0  0  0  0
  7  8  1  0  0  0  0
  7 25  1  0  0  0  0
  7 26  1  0  0  0  0
  8  9  1  0  0  0  0
  8 27  1  0  0  0  0
  8 28  1  0  0  0  0
  9 10  1  0  0  0  0
  9 11  2  0  0  0  0
 10 29  1  0  0  0  0
 10 30  1  0  0  0  0
 10 31  1  0  0  0  0
M  END
