./000873-66-5.hin
 OpenBabel02061415193D

 19 19  0  0  0  0  0  0  0  0999 V2000
   -1.1454    0.8751   -0.1496 C   0  0  0  0  0  0  0  0  0  0  0  0
   -1.2006    2.2678   -0.1496 C   0  0  0  0  0  0  0  0  0  0  0  0
    0.0850    0.2201   -0.1496 C   0  0  0  0  0  0  0  0  0  0  0  0
    1.2645    0.9656   -0.1496 C   0  0  0  0  0  0  0  0  0  0  0  0
    1.2132    2.3565   -0.1496 C   0  0  0  0  0  0  0  0  0  0  0  0
   -0.0221    3.0279   -0.1496 C   0  0  0  0  0  0  0  0  0  0  0  0
   -2.0782    0.2922   -0.1496 H   0  0  0  0  0  0  0  0  0  0  0  0
   -2.1803    2.7679   -0.1496 H   0  0  0  0  0  0  0  0  0  0  0  0
    0.1265   -0.8785   -0.1496 H   0  0  0  0  0  0  0  0  0  0  0  0
    2.2379    0.4534   -0.1496 H   0  0  0  0  0  0  0  0  0  0  0  0
    2.1477    2.9377   -0.1496 H   0  0  0  0  0  0  0  0  0  0  0  0
   -0.0280    4.4810   -0.1496 C   0  0  0  0  0  0  0  0  0  0  0  0
   -1.1183    5.2599   -0.1496 C   0  0  0  0  0  0  0  0  0  0  0  0
   -1.0621    6.7344   -0.1496 C   0  0  0  0  0  0  0  0  0  0  0  0
   -2.1356    4.8352   -0.1496 H   0  0  0  0  0  0  0  0  0  0  0  0
    0.9756    4.9457   -0.1496 H   0  0  0  0  0  0  0  0  0  0  0  0
   -0.0113    7.1150   -0.1496 H   0  0  0  0  0  0  0  0  0  0  0  0
   -1.5822    7.1369   -1.0555 H   0  0  0  0  0  0  0  0  0  0  0  0
   -1.5822    7.1369    0.7563 H   0  0  0  0  0  0  0  0  0  0  0  0
  1  2  2  0  0  0  0
  1  3  1  0  0  0  0
  1  7  1  0  0  0  0
  2  6  1  0  0  0  0
  2  8  1  0  0  0  0
  3  4  2  0  0  0  0
  3  9  1  0  0  0  0
  4  5  1  0  0  0  0
  4 10  1  0  0  0  0
  5  6  2  0  0  0  0
  5 11  1  0  0  0  0
  6 12  1  0  0  0  0
 12 13  2  0  0  0  0
 12 16  1  0  0  0  0
 13 14  1  0  0  0  0
 13 15  1  0  0  0  0
 14 17  1  0  0  0  0
 14 18  1  0  0  0  0
 14 19  1  0  0  0  0
M  END
