./000924-43-6.hin
 OpenBabel09241315583D

 16 15  0  0  1  0  0  0  0  0999 V2000
    6.3301    2.8064   12.9337 C   0  0  0  0  0  0  0  0  0  0  0  0
    5.5626    4.7761   13.9694 O   0  0  0  0  0  0  0  0  0  0  0  0
    4.5802    6.3318   14.8996 O   0  0  0  0  0  0  0  0  0  0  0  0
    5.2221    6.0582   13.9747 N   0  0  0  0  0  0  0  0  0  0  0  0
    6.3912    4.3281   12.8510 C   0  0  1  0  0  0  0  0  0  0  0  0
    6.6642    2.1745   11.6079 C   0  0  0  0  0  0  0  0  0  0  0  0
    7.0406    2.4502   13.7244 H   0  0  0  0  0  0  0  0  0  0  0  0
    5.2979    2.5016   13.2535 H   0  0  0  0  0  0  0  0  0  0  0  0
    5.9318    4.6859   11.8889 H   0  0  0  0  0  0  0  0  0  0  0  0
    7.7965    4.8653   13.0093 C   0  0  0  0  0  0  0  0  0  0  0  0
    6.6273    1.0617   11.6978 H   0  0  0  0  0  0  0  0  0  0  0  0
    5.9351    2.4884   10.8220 H   0  0  0  0  0  0  0  0  0  0  0  0
    7.6892    2.4668   11.2735 H   0  0  0  0  0  0  0  0  0  0  0  0
    8.4677    4.3775   12.2620 H   0  0  0  0  0  0  0  0  0  0  0  0
    7.8183    5.9691   12.8451 H   0  0  0  0  0  0  0  0  0  0  0  0
    8.1824    4.6505   14.0349 H   0  0  0  0  0  0  0  0  0  0  0  0
  1  5  1  0  0  0  0
  1  6  1  0  0  0  0
  1  7  1  0  0  0  0
  1  8  1  0  0  0  0
  2  4  1  0  0  0  0
  2  5  1  0  0  0  0
  3  4  2  0  0  0  0
  5  9  1  6  0  0  0
  5 10  1  0  0  0  0
  6 11  1  0  0  0  0
  6 12  1  0  0  0  0
  6 13  1  0  0  0  0
 10 14  1  0  0  0  0
 10 15  1  0  0  0  0
 10 16  1  0  0  0  0
M  END
