./001069-53-0.hin
 OpenBabel09241315583D

 29 28  0  0  1  0  0  0  0  0999 V2000
  -45.0817    5.1542   47.1846 C   0  0  0  0  0  0  0  0  0  0  0  0
  -41.9672    9.7025   46.7748 C   0  0  0  0  0  0  0  0  0  0  0  0
  -45.2338    5.9387   45.8977 C   0  0  0  0  0  0  0  0  0  0  0  0
  -42.2171    8.2580   46.3901 C   0  0  0  0  0  0  0  0  0  0  0  0
  -43.9371    6.6453   45.5240 C   0  0  0  0  0  0  0  0  0  0  0  0
  -43.7123    7.9310   46.3144 C   0  0  2  0  0  0  0  0  0  0  0  0
  -44.0871    7.7818   47.3665 H   0  0  0  0  0  0  0  0  0  0  0  0
  -44.5016    9.0629   45.6867 C   0  0  0  0  0  0  0  0  0  0  0  0
  -43.9522    6.8929   44.4291 H   0  0  0  0  0  0  0  0  0  0  0  0
  -43.0823    5.9378   45.6862 H   0  0  0  0  0  0  0  0  0  0  0  0
  -41.5167    7.3519   47.3850 C   0  0  0  0  0  0  0  0  0  0  0  0
  -41.7713    8.0834   45.3699 H   0  0  0  0  0  0  0  0  0  0  0  0
  -46.0376    6.7143   46.0483 H   0  0  0  0  0  0  0  0  0  0  0  0
  -45.6674    5.0165   44.7759 C   0  0  0  0  0  0  0  0  0  0  0  0
  -40.8771    9.8679   46.9558 H   0  0  0  0  0  0  0  0  0  0  0  0
  -42.2933   10.3931   45.9604 H   0  0  0  0  0  0  0  0  0  0  0  0
  -42.5228    9.9629   47.7076 H   0  0  0  0  0  0  0  0  0  0  0  0
  -46.0544    4.6846   47.4678 H   0  0  0  0  0  0  0  0  0  0  0  0
  -44.3215    4.3450   47.0635 H   0  0  0  0  0  0  0  0  0  0  0  0
  -44.7549    5.8227   48.0169 H   0  0  0  0  0  0  0  0  0  0  0  0
  -44.0488    9.3657   44.7118 H   0  0  0  0  0  0  0  0  0  0  0  0
  -45.5560    8.7440   45.5004 H   0  0  0  0  0  0  0  0  0  0  0  0
  -44.5216    9.9521   46.3619 H   0  0  0  0  0  0  0  0  0  0  0  0
  -40.4175    7.5497   47.3764 H   0  0  0  0  0  0  0  0  0  0  0  0
  -41.9000    7.5369   48.4176 H   0  0  0  0  0  0  0  0  0  0  0  0
  -41.6816    6.2765   47.1368 H   0  0  0  0  0  0  0  0  0  0  0  0
  -46.6027    4.4761   45.0586 H   0  0  0  0  0  0  0  0  0  0  0  0
  -45.8624    5.5992   43.8437 H   0  0  0  0  0  0  0  0  0  0  0  0
  -44.8736    4.2612   44.5614 H   0  0  0  0  0  0  0  0  0  0  0  0
  1  3  1  0  0  0  0
  1 18  1  0  0  0  0
  1 19  1  0  0  0  0
  1 20  1  0  0  0  0
  2  4  1  0  0  0  0
  2 15  1  0  0  0  0
  2 16  1  0  0  0  0
  2 17  1  0  0  0  0
  3  5  1  0  0  0  0
  3 13  1  0  0  0  0
  3 14  1  0  0  0  0
  4  6  1  0  0  0  0
  4 11  1  0  0  0  0
  4 12  1  0  0  0  0
  5  6  1  0  0  0  0
  5  9  1  0  0  0  0
  5 10  1  0  0  0  0
  6  7  1  1  0  0  0
  6  8  1  0  0  0  0
  8 21  1  0  0  0  0
  8 22  1  0  0  0  0
  8 23  1  0  0  0  0
 11 24  1  0  0  0  0
 11 25  1  0  0  0  0
 11 26  1  0  0  0  0
 14 27  1  0  0  0  0
 14 28  1  0  0  0  0
 14 29  1  0  0  0  0
M  END
