./001120-97-4.hin
 OpenBabel09241315583D

 17 17  0  0  1  0  0  0  0  0999 V2000
    1.6619    0.3252   -1.7311 C   0  0  0  0  0  0  0  0  0  0  0  0
   -0.3973    0.3634   -2.9108 C   0  0  2  0  0  0  0  0  0  0  0  0
    0.9579   -0.1088   -2.8743 O   0  0  0  0  0  0  0  0  0  0  0  0
    0.4762    2.3744   -1.7325 C   0  0  0  0  0  0  0  0  0  0  0  0
    1.7489    1.7342   -1.7783 O   0  0  0  0  0  0  0  0  0  0  0  0
   -0.9422   -0.0537   -2.0164 H   0  0  0  0  0  0  0  0  0  0  0  0
   -1.0013   -0.1688   -4.1938 C   0  0  0  0  0  0  0  0  0  0  0  0
    0.7138    3.4654   -1.8364 H   0  0  0  0  0  0  0  0  0  0  0  0
   -0.0014    2.1816   -0.7349 H   0  0  0  0  0  0  0  0  0  0  0  0
    2.7108   -0.0572   -1.8461 H   0  0  0  0  0  0  0  0  0  0  0  0
    1.1657   -0.0222   -0.7854 H   0  0  0  0  0  0  0  0  0  0  0  0
   -0.4178    1.8877   -2.8596 C   0  0  0  0  0  0  0  0  0  0  0  0
   -0.0427    2.2941   -3.8341 H   0  0  0  0  0  0  0  0  0  0  0  0
   -1.4640    2.2506   -2.7060 H   0  0  0  0  0  0  0  0  0  0  0  0
   -0.9902   -1.2846   -4.1878 H   0  0  0  0  0  0  0  0  0  0  0  0
   -2.0534    0.1906   -4.2834 H   0  0  0  0  0  0  0  0  0  0  0  0
   -0.4149    0.1848   -5.0752 H   0  0  0  0  0  0  0  0  0  0  0  0
  1  3  1  0  0  0  0
  1  5  1  0  0  0  0
  1 10  1  0  0  0  0
  1 11  1  0  0  0  0
  2  3  1  0  0  0  0
  2  6  1  1  0  0  0
  2  7  1  0  0  0  0
  2 12  1  0  0  0  0
  4  5  1  0  0  0  0
  4  8  1  0  0  0  0
  4  9  1  0  0  0  0
  4 12  1  0  0  0  0
  7 15  1  0  0  0  0
  7 16  1  0  0  0  0
  7 17  1  0  0  0  0
 12 13  1  0  0  0  0
 12 14  1  0  0  0  0
M  END
