./001649-08-7.hin
 OpenBabel09241315583D

  8  7  0  0  0  0  0  0  0  0999 V2000
    0.0188   -6.6981   12.4362 Cl  0  0  0  0  0  0  0  0  0  0  0  0
    2.3711   -4.9384   13.8253 Cl  0  0  0  0  0  0  0  0  0  0  0  0
   -0.7424   -4.3839   13.4733 F   0  0  0  0  0  0  0  0  0  0  0  0
   -0.6617   -4.3933   11.3379 F   0  0  0  0  0  0  0  0  0  0  0  0
    0.0088   -4.8811   12.4371 C   0  0  0  0  0  0  0  0  0  0  0  0
    1.4764   -4.3812   12.4489 C   0  0  0  0  0  0  0  0  0  0  0  0
    1.9874   -4.7477   11.5259 H   0  0  0  0  0  0  0  0  0  0  0  0
    1.4695   -3.2636   12.4715 H   0  0  0  0  0  0  0  0  0  0  0  0
  1  5  1  0  0  0  0
  2  6  1  0  0  0  0
  3  5  1  0  0  0  0
  4  5  1  0  0  0  0
  5  6  1  0  0  0  0
  6  7  1  0  0  0  0
  6  8  1  0  0  0  0
M  END
