./001871-57-4.hin
 OpenBabel09241315583D

 12 11  0  0  0  0  0  0  0  0999 V2000
    0.8010    0.6014    2.5982 H   0  0  0  0  0  0  0  0  0  0  0  0
    0.6338    4.5775    3.8646 Cl  0  0  0  0  0  0  0  0  0  0  0  0
    2.6420    1.6220    4.1662 C   0  0  0  0  0  0  0  0  0  0  0  0
    1.3618    2.0073    4.1448 C   0  0  0  0  0  0  0  0  0  0  0  0
    0.8825    3.1849    4.9128 C   0  0  0  0  0  0  0  0  0  0  0  0
    2.9998    0.7412    3.6163 H   0  0  0  0  0  0  0  0  0  0  0  0
    3.4094    2.1642    4.7350 H   0  0  0  0  0  0  0  0  0  0  0  0
    0.3361    1.2826    3.3517 C   0  0  0  0  0  0  0  0  0  0  0  0
    1.6227    3.5035    5.6864 H   0  0  0  0  0  0  0  0  0  0  0  0
   -0.6716    0.2681    4.3789 Cl  0  0  0  0  0  0  0  0  0  0  0  0
   -0.1036    2.9728    5.3956 H   0  0  0  0  0  0  0  0  0  0  0  0
   -0.3539    1.9991    2.8408 H   0  0  0  0  0  0  0  0  0  0  0  0
  1  8  1  0  0  0  0
  2  5  1  0  0  0  0
  3  4  2  0  0  0  0
  3  6  1  0  0  0  0
  3  7  1  0  0  0  0
  4  5  1  0  0  0  0
  4  8  1  0  0  0  0
  5  9  1  0  0  0  0
  5 11  1  0  0  0  0
  8 10  1  0  0  0  0
  8 12  1  0  0  0  0
M  END
