./002004-70-8.hin
 OpenBabel09241315583D

 13 12  0  0  0  0  0  0  0  0999 V2000
   -1.5351    0.2507    0.0000 C   0  0  0  0  0  0  0  0  0  0  0  0
   -1.5766    1.7260    0.0000 C   0  0  0  0  0  0  0  0  0  0  0  0
   -2.7188    2.4281   -0.0000 C   0  0  0  0  0  0  0  0  0  0  0  0
   -2.7591    3.8768   -0.0000 C   0  0  0  0  0  0  0  0  0  0  0  0
   -3.8935    4.5810   -0.0000 C   0  0  0  0  0  0  0  0  0  0  0  0
   -0.4811   -0.1202   -0.0000 H   0  0  0  0  0  0  0  0  0  0  0  0
   -2.0502   -0.1592    0.9051 H   0  0  0  0  0  0  0  0  0  0  0  0
   -2.0502   -0.1592   -0.9051 H   0  0  0  0  0  0  0  0  0  0  0  0
   -0.5996    2.2368    0.0000 H   0  0  0  0  0  0  0  0  0  0  0  0
   -3.6951    1.9130   -0.0000 H   0  0  0  0  0  0  0  0  0  0  0  0
   -1.7801    4.3880   -0.0000 H   0  0  0  0  0  0  0  0  0  0  0  0
   -3.8983    5.6783   -0.0000 H   0  0  0  0  0  0  0  0  0  0  0  0
   -4.8854    4.1107   -0.0000 H   0  0  0  0  0  0  0  0  0  0  0  0
  1  2  1  0  0  0  0
  1  6  1  0  0  0  0
  1  7  1  0  0  0  0
  1  8  1  0  0  0  0
  2  3  2  0  0  0  0
  2  9  1  0  0  0  0
  3  4  1  0  0  0  0
  3 10  1  0  0  0  0
  4  5  2  0  0  0  0
  4 11  1  0  0  0  0
  5 12  1  0  0  0  0
  5 13  1  0  0  0  0
M  END
