./002051-61-8.hin
 OpenBabel09241315583D

 22 23  0  0  0  0  0  0  0  0999 V2000
  -12.7627   10.6366   11.2731 C   0  0  0  0  0  0  0  0  0  0  0  0
  -12.5367   11.6901   12.1645 C   0  0  0  0  0  0  0  0  0  0  0  0
  -13.5236   12.0496   13.0879 C   0  0  0  0  0  0  0  0  0  0  0  0
  -14.7324   11.3556   13.1171 C   0  0  0  0  0  0  0  0  0  0  0  0
  -14.9573   10.3025   12.2302 C   0  0  0  0  0  0  0  0  0  0  0  0
  -13.9721    9.9440   11.3098 C   0  0  0  0  0  0  0  0  0  0  0  0
  -11.9841   10.3539   10.5492 H   0  0  0  0  0  0  0  0  0  0  0  0
  -13.3450   12.8812   13.7857 H   0  0  0  0  0  0  0  0  0  0  0  0
  -15.5094   11.6404   13.8417 H   0  0  0  0  0  0  0  0  0  0  0  0
  -14.1481    9.1127   10.6115 H   0  0  0  0  0  0  0  0  0  0  0  0
  -11.2286   12.4392   12.1303 C   0  0  0  0  0  0  0  0  0  0  0  0
  -10.5672   12.7317   13.3266 C   0  0  0  0  0  0  0  0  0  0  0  0
   -9.3552   13.4267   13.2860 C   0  0  0  0  0  0  0  0  0  0  0  0
   -8.8025   13.8314   12.0668 C   0  0  0  0  0  0  0  0  0  0  0  0
   -9.4726   13.5335   10.8809 C   0  0  0  0  0  0  0  0  0  0  0  0
  -10.6808   12.8386   10.9073 C   0  0  0  0  0  0  0  0  0  0  0  0
   -8.5442   13.7838   14.7381 Cl  0  0  0  0  0  0  0  0  0  0  0  0
   -7.8488   14.3793   12.0424 H   0  0  0  0  0  0  0  0  0  0  0  0
   -9.0432   13.8508    9.9189 H   0  0  0  0  0  0  0  0  0  0  0  0
  -11.2076   12.6071    9.9695 H   0  0  0  0  0  0  0  0  0  0  0  0
  -15.9107    9.7550   12.2569 H   0  0  0  0  0  0  0  0  0  0  0  0
  -10.9983   12.4123   14.2876 H   0  0  0  0  0  0  0  0  0  0  0  0
  1  2  2  0  0  0  0
  1  6  1  0  0  0  0
  1  7  1  0  0  0  0
  2  3  1  0  0  0  0
  2 11  1  0  0  0  0
  3  4  2  0  0  0  0
  3  8  1  0  0  0  0
  4  5  1  0  0  0  0
  4  9  1  0  0  0  0
  5  6  2  0  0  0  0
  5 21  1  0  0  0  0
  6 10  1  0  0  0  0
 11 12  2  0  0  0  0
 11 16  1  0  0  0  0
 12 13  1  0  0  0  0
 12 22  1  0  0  0  0
 13 14  2  0  0  0  0
 13 17  1  0  0  0  0
 14 15  1  0  0  0  0
 14 18  1  0  0  0  0
 15 16  2  0  0  0  0
 15 19  1  0  0  0  0
 16 20  1  0  0  0  0
M  END
