./002108-66-9.hin
  ACCLDraw05121617583D

 21 21  0  0  0  0  0  0  0  0999 V2000
   13.9236  -14.2775   -0.6457 C   0  0  3  0  0  0  0  0  0  0  0  0
   11.9189  -14.2106    0.8307 C   0  0  3  0  0  0  0  0  0  0  0  0
   12.4039  -12.8966    1.4433 C   0  0  3  0  0  0  0  0  0  0  0  0
   12.4110  -14.3509   -0.6100 C   0  0  3  0  0  0  0  0  0  0  0  0
   13.9167  -12.8337    1.3928 C   0  0  3  0  0  0  0  0  0  0  0  0
   14.4325  -12.9949   -0.0219 C   0  0  3  0  0  0  0  0  0  0  0  0
   14.2649  -14.3397   -1.7123 H   0  0  0  0  0  0  0  0  0  0  0  0
   14.3564  -15.1583   -0.1017 H   0  0  0  0  0  0  0  0  0  0  0  0
   12.0605  -12.8200    2.5080 H   0  0  0  0  0  0  0  0  0  0  0  0
   11.9647  -12.0333    0.8761 H   0  0  0  0  0  0  0  0  0  0  0  0
   11.9719  -13.5308   -1.2382 H   0  0  0  0  0  0  0  0  0  0  0  0
   12.0726  -15.3310   -1.0372 H   0  0  0  0  0  0  0  0  0  0  0  0
   14.3491  -13.6377    2.0450 H   0  0  0  0  0  0  0  0  0  0  0  0
   14.2528  -11.8470    1.8068 H   0  0  0  0  0  0  0  0  0  0  0  0
   15.5535  -13.0009   -0.0138 H   0  0  0  0  0  0  0  0  0  0  0  0
   14.1039  -12.1200   -0.6427 H   0  0  0  0  0  0  0  0  0  0  0  0
   10.3871  -14.2992    0.8882 O   0  0  0  0  0  0  0  0  0  0  0  0
    9.7293  -13.4817    0.3076 N   0  3  0  0  0  0  0  0  0  0  0  0
   12.2849  -15.0815    1.4487 H   0  0  0  0  0  0  0  0  0  0  0  0
    8.8806  -13.6135    0.7829 O   0  5  0  0  0  0  0  0  0  0  0  0
    9.9833  -12.5336   -0.4207 O   0  0  0  0  0  0  0  0  0  0  0  0
  1  4  1  0  0  0  0
  1  6  1  0  0  0  0
  1  7  1  0  0  0  0
  1  8  1  0  0  0  0
  2  3  1  0  0  0  0
  2  4  1  0  0  0  0
  2 17  1  0  0  0  0
  2 19  1  0  0  0  0
  3  5  1  0  0  0  0
  3  9  1  0  0  0  0
  3 10  1  0  0  0  0
  4 11  1  0  0  0  0
  4 12  1  0  0  0  0
  5  6  1  0  0  0  0
  5 13  1  0  0  0  0
  5 14  1  0  0  0  0
  6 15  1  0  0  0  0
  6 16  1  0  0  0  0
 17 18  1  0  0  0  0
 18 20  1  0  0  0  0
 18 21  2  0  0  0  0
M  CHG  2  18   1  20  -1
M  END