./002436-90-0.hin
 OpenBabel09241315583D

 28 27  0  0  1  0  0  0  0  0999 V2000
   -2.6713   -3.0681   -0.1060 C   0  0  0  0  0  0  0  0  0  0  0  0
   -2.7060   -1.5744   -0.3601 C   0  0  1  0  0  0  0  0  0  0  0  0
   -1.2831   -1.0232   -0.3884 C   0  0  0  0  0  0  0  0  0  0  0  0
   -1.2450    0.4807   -0.2099 C   0  0  0  0  0  0  0  0  0  0  0  0
    0.1406    1.0054   -0.2209 C   0  0  0  0  0  0  0  0  0  0  0  0
    0.4370    2.3137   -0.2821 C   0  0  0  0  0  0  0  0  0  0  0  0
    1.8379    2.7985   -0.2876 C   0  0  0  0  0  0  0  0  0  0  0  0
   -0.6115    3.3600   -0.3536 C   0  0  0  0  0  0  0  0  0  0  0  0
   -3.4353   -1.2110   -1.6076 C   0  0  0  0  0  0  0  0  0  0  0  0
   -3.7063   -3.4870   -0.1025 H   0  0  0  0  0  0  0  0  0  0  0  0
   -0.6909   -1.5060    0.4338 H   0  0  0  0  0  0  0  0  0  0  0  0
   -0.7954   -1.3010   -1.3587 H   0  0  0  0  0  0  0  0  0  0  0  0
    0.9436    0.2521   -0.1716 H   0  0  0  0  0  0  0  0  0  0  0  0
    2.0225    3.4476    0.6049 H   0  0  0  0  0  0  0  0  0  0  0  0
    2.5683    1.9532   -0.2660 H   0  0  0  0  0  0  0  0  0  0  0  0
    2.0291    3.4074   -1.2065 H   0  0  0  0  0  0  0  0  0  0  0  0
   -0.1750    4.3812   -0.2333 H   0  0  0  0  0  0  0  0  0  0  0  0
   -1.1351    3.3141   -1.3421 H   0  0  0  0  0  0  0  0  0  0  0  0
   -1.3763    3.2042    0.4484 H   0  0  0  0  0  0  0  0  0  0  0  0
   -3.5687   -0.1228   -1.7424 H   0  0  0  0  0  0  0  0  0  0  0  0
   -3.9100   -2.0615   -2.5135 C   0  0  0  0  0  0  0  0  0  0  0  0
   -2.0782   -3.5894   -0.8954 H   0  0  0  0  0  0  0  0  0  0  0  0
   -4.4449   -1.7160   -3.4082 H   0  0  0  0  0  0  0  0  0  0  0  0
   -3.8032   -3.1512   -2.4348 H   0  0  0  0  0  0  0  0  0  0  0  0
   -1.8411    0.9756   -1.0253 H   0  0  0  0  0  0  0  0  0  0  0  0
   -1.7375    0.7579    0.7633 H   0  0  0  0  0  0  0  0  0  0  0  0
   -2.2009   -3.2784    0.8849 H   0  0  0  0  0  0  0  0  0  0  0  0
   -3.2555   -1.0899    0.5007 H   0  0  0  0  0  0  0  0  0  0  0  0
  1  2  1  0  0  0  0
  1 10  1  0  0  0  0
  1 22  1  0  0  0  0
  1 27  1  0  0  0  0
  2  3  1  0  0  0  0
  2  9  1  0  0  0  0
  2 28  1  1  0  0  0
  3  4  1  0  0  0  0
  3 11  1  0  0  0  0
  3 12  1  0  0  0  0
  4  5  1  0  0  0  0
  4 25  1  0  0  0  0
  4 26  1  0  0  0  0
  5  6  2  0  0  0  0
  5 13  1  0  0  0  0
  6  7  1  0  0  0  0
  6  8  1  0  0  0  0
  7 14  1  0  0  0  0
  7 15  1  0  0  0  0
  7 16  1  0  0  0  0
  8 17  1  0  0  0  0
  8 18  1  0  0  0  0
  8 19  1  0  0  0  0
  9 20  1  0  0  0  0
  9 21  2  0  0  0  0
 21 23  1  0  0  0  0
 21 24  1  0  0  0  0
M  END
