./002517-43-3.hin
 OpenBabel09241315583D

 19 18  0  0  1  0  0  0  0  0999 V2000
  -12.6655   -3.6401   12.9977 C   0  0  0  0  0  0  0  0  0  0  0  0
  -11.3558   -3.1882   12.7082 O   0  0  0  0  0  0  0  0  0  0  0  0
  -10.6467   -4.0282   11.7886 C   0  0  2  0  0  0  0  0  0  0  0  0
   -9.1816   -3.6168   11.8836 C   0  0  0  0  0  0  0  0  0  0  0  0
  -11.1647   -3.8410   10.3747 C   0  0  0  0  0  0  0  0  0  0  0  0
   -8.6023   -4.1377   11.0790 H   0  0  0  0  0  0  0  0  0  0  0  0
   -9.0876   -2.5126   11.7188 H   0  0  0  0  0  0  0  0  0  0  0  0
  -10.5291   -4.4134    9.6582 H   0  0  0  0  0  0  0  0  0  0  0  0
  -12.2157   -4.2069   10.2914 H   0  0  0  0  0  0  0  0  0  0  0  0
  -11.1423   -2.7603   10.0962 H   0  0  0  0  0  0  0  0  0  0  0  0
   -8.6048   -3.9724   13.2421 C   0  0  0  0  0  0  0  0  0  0  0  0
   -7.2313   -3.6139   13.2168 O   0  0  0  0  0  0  0  0  0  0  0  0
  -13.0414   -2.9233   13.7706 H   0  0  0  0  0  0  0  0  0  0  0  0
  -13.3107   -3.6008   12.0859 H   0  0  0  0  0  0  0  0  0  0  0  0
  -12.6481   -4.6811   13.4059 H   0  0  0  0  0  0  0  0  0  0  0  0
  -10.7676   -5.1041   12.1018 H   0  0  0  0  0  0  0  0  0  0  0  0
   -9.1444   -3.4096   14.0500 H   0  0  0  0  0  0  0  0  0  0  0  0
   -8.7004   -5.0747   13.4389 H   0  0  0  0  0  0  0  0  0  0  0  0
   -6.9035   -3.7223   14.1164 H   0  0  0  0  0  0  0  0  0  0  0  0
  1  2  1  0  0  0  0
  1 13  1  0  0  0  0
  1 14  1  0  0  0  0
  1 15  1  0  0  0  0
  2  3  1  0  0  0  0
  3  4  1  0  0  0  0
  3  5  1  0  0  0  0
  3 16  1  1  0  0  0
  4  6  1  0  0  0  0
  4  7  1  0  0  0  0
  4 11  1  0  0  0  0
  5  8  1  0  0  0  0
  5  9  1  0  0  0  0
  5 10  1  0  0  0  0
 11 12  1  0  0  0  0
 11 17  1  0  0  0  0
 11 18  1  0  0  0  0
 12 19  1  0  0  0  0
M  END
