./002612-46-6.hin
 OpenBabel09241315583D

 14 13  0  0  0  0  0  0  0  0999 V2000
   -0.7733    3.0733   15.0431 C   0  0  0  0  0  0  0  0  0  0  0  0
   -4.5360    5.3300   15.0431 C   0  0  0  0  0  0  0  0  0  0  0  0
   -3.4171    4.5997   15.0431 C   0  0  0  0  0  0  0  0  0  0  0  0
   -2.0929    5.1840   15.0431 C   0  0  0  0  0  0  0  0  0  0  0  0
   -5.5320    4.8691   15.0431 H   0  0  0  0  0  0  0  0  0  0  0  0
   -4.5309    6.4278   15.0431 H   0  0  0  0  0  0  0  0  0  0  0  0
   -0.9293    4.5122   15.0431 C   0  0  0  0  0  0  0  0  0  0  0  0
   -2.0668    6.2898   15.0431 H   0  0  0  0  0  0  0  0  0  0  0  0
    0.0153    5.0877   15.0431 H   0  0  0  0  0  0  0  0  0  0  0  0
    0.4186    2.4694   15.0431 C   0  0  0  0  0  0  0  0  0  0  0  0
   -1.6993    2.4729   15.0431 H   0  0  0  0  0  0  0  0  0  0  0  0
   -3.4740    3.4975   15.0431 H   0  0  0  0  0  0  0  0  0  0  0  0
    0.5174    1.3764   15.0431 H   0  0  0  0  0  0  0  0  0  0  0  0
    1.3668    3.0228   15.0431 H   0  0  0  0  0  0  0  0  0  0  0  0
  1  7  1  0  0  0  0
  1 10  2  0  0  0  0
  1 11  1  0  0  0  0
  2  3  2  0  0  0  0
  2  5  1  0  0  0  0
  2  6  1  0  0  0  0
  3  4  1  0  0  0  0
  3 12  1  0  0  0  0
  4  7  2  0  0  0  0
  4  8  1  0  0  0  0
  7  9  1  0  0  0  0
 10 13  1  0  0  0  0
 10 14  1  0  0  0  0
M  END
