./003638-35-5.hin
 OpenBabel09241315583D

 18 18  0  0  0  0  0  0  0  0999 V2000
   -4.6165    1.5691   -0.6843 C   0  0  0  0  0  0  0  0  0  0  0  0
   -4.6037    3.0753   -0.6817 C   0  0  0  0  0  0  0  0  0  0  0  0
   -3.3143    2.3176   -0.7872 C   0  0  0  0  0  0  0  0  0  0  0  0
   -4.9809    1.0735   -1.6096 H   0  0  0  0  0  0  0  0  0  0  0  0
   -5.0231    0.8010    0.5412 C   0  0  0  0  0  0  0  0  0  0  0  0
   -4.8349    3.6121    0.2554 H   0  0  0  0  0  0  0  0  0  0  0  0
   -4.9877    3.6118   -1.5671 H   0  0  0  0  0  0  0  0  0  0  0  0
   -2.6190    2.3206    0.0707 H   0  0  0  0  0  0  0  0  0  0  0  0
   -2.7746    2.3069   -1.7509 H   0  0  0  0  0  0  0  0  0  0  0  0
   -4.2153    1.1485    1.7741 C   0  0  0  0  0  0  0  0  0  0  0  0
   -4.9449   -0.6914    0.2776 C   0  0  0  0  0  0  0  0  0  0  0  0
   -6.1021    1.0644    0.7485 H   0  0  0  0  0  0  0  0  0  0  0  0
   -4.6506    0.6421    2.6695 H   0  0  0  0  0  0  0  0  0  0  0  0
   -3.1564    0.8119    1.6619 H   0  0  0  0  0  0  0  0  0  0  0  0
   -4.2216    2.2507    1.9519 H   0  0  0  0  0  0  0  0  0  0  0  0
   -5.2667   -1.2588    1.1837 H   0  0  0  0  0  0  0  0  0  0  0  0
   -5.6100   -0.9740   -0.5733 H   0  0  0  0  0  0  0  0  0  0  0  0
   -3.8996   -0.9905    0.0246 H   0  0  0  0  0  0  0  0  0  0  0  0
  1  2  1  0  0  0  0
  1  3  1  0  0  0  0
  1  4  1  0  0  0  0
  1  5  1  0  0  0  0
  2  3  1  0  0  0  0
  2  6  1  0  0  0  0
  2  7  1  0  0  0  0
  3  8  1  0  0  0  0
  3  9  1  0  0  0  0
  5 10  1  0  0  0  0
  5 11  1  0  0  0  0
  5 12  1  0  0  0  0
 10 13  1  0  0  0  0
 10 14  1  0  0  0  0
 10 15  1  0  0  0  0
 11 16  1  0  0  0  0
 11 17  1  0  0  0  0
 11 18  1  0  0  0  0
M  END
