./005878-19-3.hin
 OpenBabel09241315583D

 14 13  0  0  0  0  0  0  0  0999 V2000
   -1.6803   -1.1921    2.2991 C   0  0  0  0  0  0  0  0  0  0  0  0
   -1.8580    0.2889    2.0454 C   0  0  0  0  0  0  0  0  0  0  0  0
   -0.7232   -1.3654    2.8617 H   0  0  0  0  0  0  0  0  0  0  0  0
   -2.7856   -1.6611    3.0652 O   0  0  0  0  0  0  0  0  0  0  0  0
   -3.0755    0.9351    2.6088 C   0  0  0  0  0  0  0  0  0  0  0  0
   -3.1036    2.0232    2.3619 H   0  0  0  0  0  0  0  0  0  0  0  0
   -3.9852    0.4330    2.1954 H   0  0  0  0  0  0  0  0  0  0  0  0
   -3.0842    0.8020    3.7191 H   0  0  0  0  0  0  0  0  0  0  0  0
   -1.0059    0.9011    1.3931 O   0  0  0  0  0  0  0  0  0  0  0  0
   -1.6340   -1.7391    1.3188 H   0  0  0  0  0  0  0  0  0  0  0  0
   -2.6952   -3.0484    3.3477 C   0  0  0  0  0  0  0  0  0  0  0  0
   -3.6154   -3.2690    3.9443 H   0  0  0  0  0  0  0  0  0  0  0  0
   -2.6877   -3.6434    2.4012 H   0  0  0  0  0  0  0  0  0  0  0  0
   -1.7764   -3.2695    3.9451 H   0  0  0  0  0  0  0  0  0  0  0  0
  1  2  1  0  0  0  0
  1  3  1  0  0  0  0
  1  4  1  0  0  0  0
  1 10  1  0  0  0  0
  2  5  1  0  0  0  0
  2  9  2  0  0  0  0
  4 11  1  0  0  0  0
  5  6  1  0  0  0  0
  5  7  1  0  0  0  0
  5  8  1  0  0  0  0
 11 12  1  0  0  0  0
 11 13  1  0  0  0  0
 11 14  1  0  0  0  0
M  END
