./006004-44-0.hin
 OpenBabel09241315583D

  8  7  0  0  0  0  0  0  0  0999 V2000
    0.8886    1.3336    0.0000 O   0  0  0  0  0  0  0  0  0  0  0  0
    0.7793    3.8370   -0.0000 C   0  0  0  0  0  0  0  0  0  0  0  0
    0.8245    2.5238   -0.0000 C   0  0  0  0  0  0  0  0  0  0  0  0
    1.7271    4.3957   -0.0000 H   0  0  0  0  0  0  0  0  0  0  0  0
   -0.4792    4.6049   -0.0000 C   0  0  0  0  0  0  0  0  0  0  0  0
   -0.2517    5.6993    0.0000 H   0  0  0  0  0  0  0  0  0  0  0  0
   -1.0938    4.3755   -0.9065 H   0  0  0  0  0  0  0  0  0  0  0  0
   -1.0938    4.3755    0.9065 H   0  0  0  0  0  0  0  0  0  0  0  0
  1  3  2  0  0  0  0
  2  3  2  0  0  0  0
  2  4  1  0  0  0  0
  2  5  1  0  0  0  0
  5  6  1  0  0  0  0
  5  7  1  0  0  0  0
  5  8  1  0  0  0  0
M  END
