./010061-01-5.hin
 OpenBabel09241315583D

  9  8  0  0  0  0  0  0  0  0999 V2000
   -5.2416  -10.5935   23.3725 C   0  0  0  0  0  0  0  0  0  0  0  0
   -5.2945   -9.2672   23.2317 C   0  0  0  0  0  0  0  0  0  0  0  0
   -6.2397   -8.7058   23.2401 H   0  0  0  0  0  0  0  0  0  0  0  0
   -3.9552   -8.2554   23.0161 Cl  0  0  0  0  0  0  0  0  0  0  0  0
   -4.0112  -11.4101   23.3505 C   0  0  0  0  0  0  0  0  0  0  0  0
   -4.0511  -12.6554   24.5903 Cl  0  0  0  0  0  0  0  0  0  0  0  0
   -6.1840  -11.1549   23.5083 H   0  0  0  0  0  0  0  0  0  0  0  0
   -3.9157  -11.9429   22.3707 H   0  0  0  0  0  0  0  0  0  0  0  0
   -3.0906  -10.8047   23.5394 H   0  0  0  0  0  0  0  0  0  0  0  0
  1  2  2  0  0  0  0
  1  5  1  0  0  0  0
  1  7  1  0  0  0  0
  2  3  1  0  0  0  0
  2  4  1  0  0  0  0
  5  6  1  0  0  0  0
  5  8  1  0  0  0  0
  5  9  1  0  0  0  0
M  END
