./010574-37-5.hin
 OpenBabel09241315583D

 21 20  0  0  0  0  0  0  0  0999 V2000
   -3.9093   -0.3843   -0.2090 C   0  0  0  0  0  0  0  0  0  0  0  0
   -3.9757    1.0991   -0.2090 C   0  0  0  0  0  0  0  0  0  0  0  0
   -5.1651    1.7445   -0.2090 C   0  0  0  0  0  0  0  0  0  0  0  0
   -5.2239    3.2331   -0.2090 C   0  0  0  0  0  0  0  0  0  0  0  0
   -6.5964    3.8544   -0.2090 C   0  0  0  0  0  0  0  0  0  0  0  0
   -2.8515   -0.7440   -0.2090 H   0  0  0  0  0  0  0  0  0  0  0  0
   -4.4220   -0.7986    0.6959 H   0  0  0  0  0  0  0  0  0  0  0  0
   -4.4220   -0.7986   -1.1139 H   0  0  0  0  0  0  0  0  0  0  0  0
   -2.6592    1.7785   -0.2090 C   0  0  0  0  0  0  0  0  0  0  0  0
   -6.4186    0.9509   -0.2090 C   0  0  0  0  0  0  0  0  0  0  0  0
   -4.6665    3.6082    0.6953 H   0  0  0  0  0  0  0  0  0  0  0  0
   -4.6664    3.6082   -1.1133 H   0  0  0  0  0  0  0  0  0  0  0  0
   -6.5007    4.9683   -0.2090 H   0  0  0  0  0  0  0  0  0  0  0  0
   -7.1747    3.5564   -1.1167 H   0  0  0  0  0  0  0  0  0  0  0  0
   -7.1747    3.5564    0.6987 H   0  0  0  0  0  0  0  0  0  0  0  0
   -2.7461    2.8915   -0.2090 H   0  0  0  0  0  0  0  0  0  0  0  0
   -2.0761    1.4745    0.6971 H   0  0  0  0  0  0  0  0  0  0  0  0
   -2.0761    1.4745   -1.1150 H   0  0  0  0  0  0  0  0  0  0  0  0
   -6.4531    0.2904    0.6957 H   0  0  0  0  0  0  0  0  0  0  0  0
   -6.4531    0.2905   -1.1137 H   0  0  0  0  0  0  0  0  0  0  0  0
   -7.3386    1.5807   -0.2090 H   0  0  0  0  0  0  0  0  0  0  0  0
  1  2  1  0  0  0  0
  1  6  1  0  0  0  0
  1  7  1  0  0  0  0
  1  8  1  0  0  0  0
  2  3  2  0  0  0  0
  2  9  1  0  0  0  0
  3  4  1  0  0  0  0
  3 10  1  0  0  0  0
  4  5  1  0  0  0  0
  4 11  1  0  0  0  0
  4 12  1  0  0  0  0
  5 13  1  0  0  0  0
  5 14  1  0  0  0  0
  5 15  1  0  0  0  0
  9 16  1  0  0  0  0
  9 17  1  0  0  0  0
  9 18  1  0  0  0  0
 10 19  1  0  0  0  0
 10 20  1  0  0  0  0
 10 21  1  0  0  0  0
M  END
