./014850-23-8.hin
 OpenBabel09241315583D

 24 23  0  0  0  0  0  0  0  0999 V2000
   -7.0889   -0.3538   -1.5717 C   0  0  0  0  0  0  0  0  0  0  0  0
   -7.1346    1.1269   -1.5717 C   0  0  0  0  0  0  0  0  0  0  0  0
   -8.5253    1.7257   -1.5717 C   0  0  0  0  0  0  0  0  0  0  0  0
   -8.4718    3.2321   -1.5717 C   0  0  0  0  0  0  0  0  0  0  0  0
   -6.0621   -0.7605   -1.5717 H   0  0  0  0  0  0  0  0  0  0  0  0
   -6.5758    1.4990   -0.6684 H   0  0  0  0  0  0  0  0  0  0  0  0
   -6.5758    1.4990   -2.4750 H   0  0  0  0  0  0  0  0  0  0  0  0
   -9.0878    1.3703   -2.4753 H   0  0  0  0  0  0  0  0  0  0  0  0
   -9.0878    1.3703   -0.6681 H   0  0  0  0  0  0  0  0  0  0  0  0
   -9.5048    3.6562   -1.5717 H   0  0  0  0  0  0  0  0  0  0  0  0
   -7.9362    3.6084   -0.6667 H   0  0  0  0  0  0  0  0  0  0  0  0
   -7.9362    3.6084   -2.4767 H   0  0  0  0  0  0  0  0  0  0  0  0
   -6.7637   -4.7543   -1.5717 C   0  0  0  0  0  0  0  0  0  0  0  0
   -6.7102   -3.2478   -1.5717 C   0  0  0  0  0  0  0  0  0  0  0  0
   -8.1009   -2.6490   -1.5717 C   0  0  0  0  0  0  0  0  0  0  0  0
   -8.1466   -1.1684   -1.5717 C   0  0  0  0  0  0  0  0  0  0  0  0
   -5.7307   -5.1784   -1.5717 H   0  0  0  0  0  0  0  0  0  0  0  0
   -7.2993   -5.1306   -0.6667 H   0  0  0  0  0  0  0  0  0  0  0  0
   -6.1477   -2.8924   -0.6681 H   0  0  0  0  0  0  0  0  0  0  0  0
   -8.6597   -3.0212   -2.4750 H   0  0  0  0  0  0  0  0  0  0  0  0
   -8.6597   -3.0212   -0.6684 H   0  0  0  0  0  0  0  0  0  0  0  0
   -9.1735   -0.7616   -1.5717 H   0  0  0  0  0  0  0  0  0  0  0  0
   -7.2993   -5.1306   -2.4767 H   0  0  0  0  0  0  0  0  0  0  0  0
   -6.1477   -2.8924   -2.4753 H   0  0  0  0  0  0  0  0  0  0  0  0
  1  2  1  0  0  0  0
  1  5  1  0  0  0  0
  1 16  2  0  0  0  0
  2  3  1  0  0  0  0
  2  6  1  0  0  0  0
  2  7  1  0  0  0  0
  3  4  1  0  0  0  0
  3  8  1  0  0  0  0
  3  9  1  0  0  0  0
  4 10  1  0  0  0  0
  4 11  1  0  0  0  0
  4 12  1  0  0  0  0
 13 14  1  0  0  0  0
 13 17  1  0  0  0  0
 13 18  1  0  0  0  0
 13 23  1  0  0  0  0
 14 15  1  0  0  0  0
 14 19  1  0  0  0  0
 14 24  1  0  0  0  0
 15 16  1  0  0  0  0
 15 20  1  0  0  0  0
 15 21  1  0  0  0  0
 16 22  1  0  0  0  0
M  END
