./021981-48-6.hin
 OpenBabel09241315583D

 20 19  0  0  1  0  0  0  0  0999 V2000
  -12.2748   -2.6104   29.4723 C   0  0  0  0  0  0  0  0  0  0  0  0
  -12.9831   -0.7581   30.8770 O   0  0  0  0  0  0  0  0  0  0  0  0
  -14.3166   -0.8138   30.9601 N   0  3  0  0  0  0  0  0  0  0  0  0
  -14.7401   -0.5349   32.0362 O   0  0  0  0  0  0  0  0  0  0  0  0
  -14.9301   -1.1207   29.9829 O   0  5  0  0  0  0  0  0  0  0  0  0
  -12.3171   -1.1058   29.6136 C   0  0  1  0  0  0  0  0  0  0  0  0
  -10.9299   -0.4955   29.7662 C   0  0  0  0  0  0  0  0  0  0  0  0
  -12.8804   -0.6347   28.7621 H   0  0  0  0  0  0  0  0  0  0  0  0
  -10.5391   -0.7126   30.7955 H   0  0  0  0  0  0  0  0  0  0  0  0
  -10.2515   -0.9987   29.0282 H   0  0  0  0  0  0  0  0  0  0  0  0
  -10.9419    0.9987   29.5273 C   0  0  0  0  0  0  0  0  0  0  0  0
   -9.5658    1.5897   29.6932 C   0  0  0  0  0  0  0  0  0  0  0  0
  -13.3105   -3.0204   29.3849 H   0  0  0  0  0  0  0  0  0  0  0  0
  -11.7036   -2.8815   28.5522 H   0  0  0  0  0  0  0  0  0  0  0  0
  -11.7772   -3.0742   30.3576 H   0  0  0  0  0  0  0  0  0  0  0  0
  -11.3221    1.2126   28.4932 H   0  0  0  0  0  0  0  0  0  0  0  0
  -11.6525    1.4810   30.2502 H   0  0  0  0  0  0  0  0  0  0  0  0
   -9.5947    2.6907   29.5084 H   0  0  0  0  0  0  0  0  0  0  0  0
   -9.1837    1.4159   30.7282 H   0  0  0  0  0  0  0  0  0  0  0  0
   -8.8479    1.1294   28.9720 H   0  0  0  0  0  0  0  0  0  0  0  0
  1  6  1  0  0  0  0
  1 13  1  0  0  0  0
  1 14  1  0  0  0  0
  1 15  1  0  0  0  0
  2  3  1  0  0  0  0
  2  6  1  0  0  0  0
  3  4  2  0  0  0  0
  3  5  1  0  0  0  0
  6  7  1  0  0  0  0
  6  8  1  6  0  0  0
  7  9  1  0  0  0  0
  7 10  1  0  0  0  0
  7 11  1  0  0  0  0
 11 12  1  0  0  0  0
 11 16  1  0  0  0  0
 11 17  1  0  0  0  0
 12 18  1  0  0  0  0
 12 19  1  0  0  0  0
 12 20  1  0  0  0  0
M  CHG  2   3   1   5  -1
M  END
