./022608-53-3.hin
 OpenBabel09241315583D

 17 16  0  0  0  0  0  0  0  0999 V2000
   -9.0770    1.0487   34.6699 P   0  0  0  0  0  0  0  0  0  0  0  0
  -10.0972    2.9166   34.7856 S   0  0  0  0  0  0  0  0  0  0  0  0
   -7.6697    1.2598   33.9316 O   0  0  0  0  0  0  0  0  0  0  0  0
   -8.8815    0.3145   35.9057 O   0  0  0  0  0  0  0  0  0  0  0  0
  -10.3994    0.3714   33.1398 S   0  0  0  0  0  0  0  0  0  0  0  0
  -10.6676    3.6894   33.2570 C   0  0  0  0  0  0  0  0  0  0  0  0
  -10.1484   -1.2285   32.3690 C   0  0  0  0  0  0  0  0  0  0  0  0
   -6.4753    1.0856   34.6631 C   0  0  0  0  0  0  0  0  0  0  0  0
  -11.1665    4.6158   33.6178 H   0  0  0  0  0  0  0  0  0  0  0  0
   -9.8048    3.9323   32.6046 H   0  0  0  0  0  0  0  0  0  0  0  0
  -11.3880    3.0234   32.7381 H   0  0  0  0  0  0  0  0  0  0  0  0
  -10.9869   -1.3158   31.6430 H   0  0  0  0  0  0  0  0  0  0  0  0
   -9.1745   -1.2535   31.8386 H   0  0  0  0  0  0  0  0  0  0  0  0
  -10.2088   -2.0370   33.1263 H   0  0  0  0  0  0  0  0  0  0  0  0
   -5.8495    0.3402   34.1048 H   0  0  0  0  0  0  0  0  0  0  0  0
   -5.9393    2.0710   34.6867 H   0  0  0  0  0  0  0  0  0  0  0  0
   -6.6892    0.7204   35.6995 H   0  0  0  0  0  0  0  0  0  0  0  0
  1  2  1  0  0  0  0
  1  3  1  0  0  0  0
  1  4  2  0  0  0  0
  1  5  1  0  0  0  0
  2  6  1  0  0  0  0
  3  8  1  0  0  0  0
  5  7  1  0  0  0  0
  6  9  1  0  0  0  0
  6 10  1  0  0  0  0
  6 11  1  0  0  0  0
  7 12  1  0  0  0  0
  7 13  1  0  0  0  0
  7 14  1  0  0  0  0
  8 15  1  0  0  0  0
  8 16  1  0  0  0  0
  8 17  1  0  0  0  0
M  END
