./025154-53-4.hin
 OpenBabel09241315583D

 16 15  0  0  0  0  0  0  0  0999 V2000
    8.0678  -11.5876    3.3311 C   0  0  0  0  0  0  0  0  0  0  0  0
    9.3075   -8.3599    2.0764 C   0  0  0  0  0  0  0  0  0  0  0  0
    7.9347  -10.1554    2.8382 C   0  0  0  0  0  0  0  0  0  0  0  0
    9.2474   -9.6675    2.6177 O   0  0  0  0  0  0  0  0  0  0  0  0
   10.3961   -8.1907    1.8819 H   0  0  0  0  0  0  0  0  0  0  0  0
    8.7233   -8.2965    1.1248 H   0  0  0  0  0  0  0  0  0  0  0  0
    8.9210   -7.6145    2.8141 H   0  0  0  0  0  0  0  0  0  0  0  0
    7.4219   -9.3521    3.8923 O   0  0  0  0  0  0  0  0  0  0  0  0
    6.3558   -8.4991    3.5140 C   0  0  0  0  0  0  0  0  0  0  0  0
    7.0510  -12.0081    3.5088 H   0  0  0  0  0  0  0  0  0  0  0  0
    8.6024  -12.1944    2.5638 H   0  0  0  0  0  0  0  0  0  0  0  0
    8.6468  -11.6099    4.2845 H   0  0  0  0  0  0  0  0  0  0  0  0
    7.3125  -10.0787    1.9037 H   0  0  0  0  0  0  0  0  0  0  0  0
    6.1261   -7.9124    4.4384 H   0  0  0  0  0  0  0  0  0  0  0  0
    6.6655   -7.8170    2.6837 H   0  0  0  0  0  0  0  0  0  0  0  0
    5.4659   -9.0993    3.2009 H   0  0  0  0  0  0  0  0  0  0  0  0
  1  3  1  0  0  0  0
  1 10  1  0  0  0  0
  1 11  1  0  0  0  0
  1 12  1  0  0  0  0
  2  4  1  0  0  0  0
  2  5  1  0  0  0  0
  2  6  1  0  0  0  0
  2  7  1  0  0  0  0
  3  4  1  0  0  0  0
  3  8  1  0  0  0  0
  3 13  1  0  0  0  0
  8  9  1  0  0  0  0
  9 14  1  0  0  0  0
  9 15  1  0  0  0  0
  9 16  1  0  0  0  0
M  END
