./027576-03-0.hin
                    3D
 Structure written by MMmdl.
 22 22  0  0  1  0            999 V2000
    0.9557   -0.3556    2.0718 C   0  0  0  0  0  0
    0.4833    0.9799    2.0718 C   0  0  0  0  0  0
   -0.9159    1.1874    2.0718 C   0  0  0  0  0  0
   -1.8161    0.1043    2.0718 C   0  0  0  0  0  0
   -1.3292   -1.2143    2.0718 C   0  0  0  0  0  0
    0.0581   -1.4417    2.0718 C   0  0  0  0  0  0
    2.0039   -0.5913    2.0718 H   0  0  0  0  0  0
    1.3422    2.1893    2.0718 C   0  0  0  0  0  0
   -1.3152    2.1910    2.0718 H   0  0  0  0  0  0
   -2.8808    0.2860    2.0718 H   0  0  0  0  0  0
   -2.0164   -2.0483    2.0718 H   0  0  0  0  0  0
    0.4382   -2.4530    2.0718 H   0  0  0  0  0  0
    2.6844    2.3527    2.0718 C   0  0  0  0  0  0
    3.2609    3.7588    2.0718 C   0  0  0  0  0  0
    3.7150    1.2365    2.0718 C   0  0  0  0  0  0
    0.7788    3.1120    2.0718 H   0  0  0  0  0  0
    4.3509    3.7681    2.0718 H   0  0  0  0  0  0
    2.9233    4.3020    1.1884 H   0  0  0  0  0  0
    2.9233    4.3020    2.9552 H   0  0  0  0  0  0
    4.7350    1.6186    2.0718 H   0  0  0  0  0  0
    3.6076    0.6180    2.9631 H   0  0  0  0  0  0
    3.6076    0.6180    1.1804 H   0  0  0  0  0  0
  1  2  2  0  0  0
  1  6  1  0  0  0
  1  7  1  0  0  0
  2  3  1  0  0  0
  2  8  1  0  0  0
  3  4  2  0  0  0
  3  9  1  0  0  0
  4  5  1  0  0  0
  4 10  1  0  0  0
  5  6  2  0  0  0
  5 11  1  0  0  0
  6 12  1  0  0  0
  8 13  2  0  0  0
  8 16  1  0  0  0
 13 14  1  0  0  0
 13 15  1  0  0  0
 14 17  1  0  0  0
 14 18  1  0  0  0
 14 19  1  0  0  0
 15 20  1  0  0  0
 15 21  1  0  0  0
 15 22  1  0  0  0
M  END