./039885-14-8.hin
 OpenBabel09241315583D

 11 10  0  0  0  0  0  0  0  0999 V2000
   -2.5297    3.6398   -1.3663 N   0  0  0  0  0  0  0  0  0  0  0  0
   -2.4742    5.0903   -1.3663 C   0  0  0  0  0  0  0  0  0  0  0  0
   -1.2284    2.9968   -1.3663 C   0  0  0  0  0  0  0  0  0  0  0  0
   -3.4999    5.5435   -1.3663 H   0  0  0  0  0  0  0  0  0  0  0  0
   -1.9226    5.4383   -0.4523 H   0  0  0  0  0  0  0  0  0  0  0  0
   -1.9226    5.4383   -2.2803 H   0  0  0  0  0  0  0  0  0  0  0  0
   -1.3339    1.8798   -1.3663 H   0  0  0  0  0  0  0  0  0  0  0  0
   -0.6557    3.3086   -2.2797 H   0  0  0  0  0  0  0  0  0  0  0  0
   -0.6556    3.3086   -0.4530 H   0  0  0  0  0  0  0  0  0  0  0  0
   -3.7085    3.0252   -1.3663 N   0  0  0  0  0  0  0  0  0  0  0  0
   -3.7255    1.8558   -1.3663 O   0  0  0  0  0  0  0  0  0  0  0  0
  1  2  1  0  0  0  0
  1  3  1  0  0  0  0
  1 10  1  0  0  0  0
  2  4  1  0  0  0  0
  2  5  1  0  0  0  0
  2  6  1  0  0  0  0
  3  7  1  0  0  0  0
  3  8  1  0  0  0  0
  3  9  1  0  0  0  0
 10 11  2  0  0  0  0
M  END
