./082944-59-0.hin
 OpenBabel09241315583D

 20 19  0  0  0  0  0  0  0  0999 V2000
  -12.5650   -2.8321   29.9444 C   0  0  0  0  0  0  0  0  0  0  0  0
  -13.0188   -0.8879   31.4027 O   0  0  0  0  0  0  0  0  0  0  0  0
  -12.5834   -1.2986   32.5996 N   0  3  0  0  0  0  0  0  0  0  0  0
  -11.6638   -2.0575   32.6515 O   0  0  0  0  0  0  0  0  0  0  0  0
  -13.1968   -0.8339   33.5079 O   0  5  0  0  0  0  0  0  0  0  0  0
  -12.4072   -1.3363   30.1575 C   0  0  0  0  0  0  0  0  0  0  0  0
  -10.9625   -0.8843   30.0300 C   0  0  0  0  0  0  0  0  0  0  0  0
  -13.0673   -0.7616   29.4376 H   0  0  0  0  0  0  0  0  0  0  0  0
  -10.3442   -1.3547   30.8401 H   0  0  0  0  0  0  0  0  0  0  0  0
  -10.5703   -1.2641   29.0490 H   0  0  0  0  0  0  0  0  0  0  0  0
  -10.8325    0.6156   30.0817 C   0  0  0  0  0  0  0  0  0  0  0  0
  -12.0744   -3.0926   28.9687 H   0  0  0  0  0  0  0  0  0  0  0  0
  -12.0194   -3.3906   30.7508 H   0  0  0  0  0  0  0  0  0  0  0  0
   -9.7562    0.9093   30.0345 H   0  0  0  0  0  0  0  0  0  0  0  0
  -11.3672    1.0900   29.2234 H   0  0  0  0  0  0  0  0  0  0  0  0
  -14.0122   -3.2492   29.9115 C   0  0  0  0  0  0  0  0  0  0  0  0
  -14.0897   -4.3578   29.8029 H   0  0  0  0  0  0  0  0  0  0  0  0
  -14.5296   -2.9470   30.8546 H   0  0  0  0  0  0  0  0  0  0  0  0
  -14.5435   -2.7711   29.0532 H   0  0  0  0  0  0  0  0  0  0  0  0
  -11.2692    1.0153   31.0292 H   0  0  0  0  0  0  0  0  0  0  0  0
  1  6  1  0  0  0  0
  1 12  1  0  0  0  0
  1 13  1  0  0  0  0
  1 16  1  0  0  0  0
  2  3  1  0  0  0  0
  2  6  1  0  0  0  0
  3  4  2  0  0  0  0
  3  5  1  0  0  0  0
  6  7  1  0  0  0  0
  6  8  1  0  0  0  0
  7  9  1  0  0  0  0
  7 10  1  0  0  0  0
  7 11  1  0  0  0  0
 11 14  1  0  0  0  0
 11 15  1  0  0  0  0
 11 20  1  0  0  0  0
 16 17  1  0  0  0  0
 16 18  1  0  0  0  0
 16 19  1  0  0  0  0
M  CHG  2   3   1   5  -1
M  END
