./082944-61-4.hin
 OpenBabel09241315583D

 26 25  0  0  1  0  0  0  0  0999 V2000
  -12.7768   -2.8376   29.6407 C   0  0  0  0  0  0  0  0  0  0  0  0
  -13.6394   -0.8701   30.8646 O   0  0  0  0  0  0  0  0  0  0  0  0
  -13.2734   -1.1153   32.1282 N   0  3  0  0  0  0  0  0  0  0  0  0
  -12.2692   -1.7272   32.3313 O   0  0  0  0  0  0  0  0  0  0  0  0
  -14.0316   -0.6718   32.9318 O   0  5  0  0  0  0  0  0  0  0  0  0
  -12.8508   -1.3226   29.7248 C   0  0  1  0  0  0  0  0  0  0  0  0
  -11.4778   -0.6754   29.6809 C   0  0  0  0  0  0  0  0  0  0  0  0
  -13.5102   -0.9121   28.8996 H   0  0  0  0  0  0  0  0  0  0  0  0
  -10.8857   -0.9706   30.5874 H   0  0  0  0  0  0  0  0  0  0  0  0
  -10.9353   -1.0763   28.7836 H   0  0  0  0  0  0  0  0  0  0  0  0
  -11.5688    0.8323   29.5862 C   0  0  0  0  0  0  0  0  0  0  0  0
  -10.1933    1.4644   29.6029 C   0  0  0  0  0  0  0  0  0  0  0  0
  -12.1617   -3.1008   28.7390 H   0  0  0  0  0  0  0  0  0  0  0  0
  -12.2400   -3.2425   30.5394 H   0  0  0  0  0  0  0  0  0  0  0  0
  -12.1041    1.1202   28.6430 H   0  0  0  0  0  0  0  0  0  0  0  0
  -12.1769    1.2258   30.4434 H   0  0  0  0  0  0  0  0  0  0  0  0
  -10.2767    2.9652   29.4962 C   0  0  0  0  0  0  0  0  0  0  0  0
   -9.6638    1.1827   30.5514 H   0  0  0  0  0  0  0  0  0  0  0  0
   -9.5849    1.0585   28.7518 H   0  0  0  0  0  0  0  0  0  0  0  0
   -9.2533    3.4117   29.5126 H   0  0  0  0  0  0  0  0  0  0  0  0
  -10.7779    3.2665   28.5446 H   0  0  0  0  0  0  0  0  0  0  0  0
  -14.1415   -3.4649   29.5241 C   0  0  0  0  0  0  0  0  0  0  0  0
  -10.8606    3.3893   30.3487 H   0  0  0  0  0  0  0  0  0  0  0  0
  -14.0525   -4.5780   29.5136 H   0  0  0  0  0  0  0  0  0  0  0  0
  -14.7855   -3.1675   30.3873 H   0  0  0  0  0  0  0  0  0  0  0  0
  -14.6480   -3.1410   28.5827 H   0  0  0  0  0  0  0  0  0  0  0  0
  1  6  1  0  0  0  0
  1 13  1  0  0  0  0
  1 14  1  0  0  0  0
  1 22  1  0  0  0  0
  2  3  1  0  0  0  0
  2  6  1  0  0  0  0
  3  4  2  0  0  0  0
  3  5  1  0  0  0  0
  6  7  1  0  0  0  0
  6  8  1  6  0  0  0
  7  9  1  0  0  0  0
  7 10  1  0  0  0  0
  7 11  1  0  0  0  0
 11 12  1  0  0  0  0
 11 15  1  0  0  0  0
 11 16  1  0  0  0  0
 12 17  1  0  0  0  0
 12 18  1  0  0  0  0
 12 19  1  0  0  0  0
 17 20  1  0  0  0  0
 17 21  1  0  0  0  0
 17 23  1  0  0  0  0
 22 24  1  0  0  0  0
 22 25  1  0  0  0  0
 22 26  1  0  0  0  0
M  CHG  2   3   1   5  -1
M  END