./XXXUNK-06-1.hin
 OpenBabel09241315583D

 21 21  0  0  0  0  0  0  0  0999 V2000
   -0.3175    0.3454    0.0000 C   0  0  0  0  0  0  0  0  0  0  0  0
   -0.4048    1.7593    0.0000 C   0  0  0  0  0  0  0  0  0  0  0  0
    0.7494    2.5773    0.0000 C   0  0  0  0  0  0  0  0  0  0  0  0
    2.0316    1.9760   -0.0000 C   0  0  0  0  0  0  0  0  0  0  0  0
    2.1340    0.5679   -0.0000 C   0  0  0  0  0  0  0  0  0  0  0  0
    0.9606   -0.2385   -0.0000 C   0  0  0  0  0  0  0  0  0  0  0  0
   -1.6121   -0.3912    0.0000 C   0  0  0  0  0  0  0  0  0  0  0  0
   -1.5471   -1.9013   -0.0000 C   0  0  0  0  0  0  0  0  0  0  0  0
   -2.9342   -2.4938    0.0000 C   0  0  0  0  0  0  0  0  0  0  0  0
   -1.6193    2.3550    0.0000 F   0  0  0  0  0  0  0  0  0  0  0  0
    0.6322    3.9216    0.0000 F   0  0  0  0  0  0  0  0  0  0  0  0
    3.1416    2.7416   -0.0000 F   0  0  0  0  0  0  0  0  0  0  0  0
    3.3485   -0.0214   -0.0000 F   0  0  0  0  0  0  0  0  0  0  0  0
    1.1382   -1.5782   -0.0000 F   0  0  0  0  0  0  0  0  0  0  0  0
   -2.1957   -0.0516    0.9029 H   0  0  0  0  0  0  0  0  0  0  0  0
   -2.1957   -0.0516   -0.9028 H   0  0  0  0  0  0  0  0  0  0  0  0
   -0.9861   -2.2590   -0.9037 H   0  0  0  0  0  0  0  0  0  0  0  0
   -0.9861   -2.2590    0.9037 H   0  0  0  0  0  0  0  0  0  0  0  0
   -2.8731   -3.6089   -0.0000 H   0  0  0  0  0  0  0  0  0  0  0  0
   -3.5032   -2.1713    0.9054 H   0  0  0  0  0  0  0  0  0  0  0  0
   -3.5032   -2.1713   -0.9054 H   0  0  0  0  0  0  0  0  0  0  0  0
  1  2  2  0  0  0  0
  1  6  1  0  0  0  0
  1  7  1  0  0  0  0
  2  3  1  0  0  0  0
  2 10  1  0  0  0  0
  3  4  2  0  0  0  0
  3 11  1  0  0  0  0
  4  5  1  0  0  0  0
  4 12  1  0  0  0  0
  5  6  2  0  0  0  0
  5 13  1  0  0  0  0
  6 14  1  0  0  0  0
  7  8  1  0  0  0  0
  7 15  1  0  0  0  0
  7 16  1  0  0  0  0
  8  9  1  0  0  0  0
  8 17  1  0  0  0  0
  8 18  1  0  0  0  0
  9 19  1  0  0  0  0
  9 20  1  0  0  0  0
  9 21  1  0  0  0  0
M  END
