./XXXUNK-06-3.hin
 OpenBabel09241315583D

 23 22  0  0  0  0  0  0  0  0999 V2000
  -12.2810   -2.5616   29.5642 C   0  0  0  0  0  0  0  0  0  0  0  0
  -12.9682   -0.5612   30.8017 O   0  0  0  0  0  0  0  0  0  0  0  0
  -14.2388   -0.8369   31.0998 N   0  3  0  0  0  0  0  0  0  0  0  0
  -14.5914   -0.3691   32.1371 O   0  0  0  0  0  0  0  0  0  0  0  0
  -14.8844   -1.4958   30.3420 O   0  5  0  0  0  0  0  0  0  0  0  0
  -12.3376   -1.0440   29.5562 C   0  0  0  0  0  0  0  0  0  0  0  0
  -10.9231   -0.4636   29.6813 C   0  0  0  0  0  0  0  0  0  0  0  0
  -13.0789   -0.5123   28.3460 C   0  0  0  0  0  0  0  0  0  0  0  0
  -10.4885   -0.7934   30.6621 H   0  0  0  0  0  0  0  0  0  0  0  0
  -10.3061   -0.9144   28.8603 H   0  0  0  0  0  0  0  0  0  0  0  0
  -10.8790    1.0460   29.5932 C   0  0  0  0  0  0  0  0  0  0  0  0
   -9.4857    1.5636   29.8441 C   0  0  0  0  0  0  0  0  0  0  0  0
  -13.3030   -2.9983   29.4511 H   0  0  0  0  0  0  0  0  0  0  0  0
  -11.6480   -2.9103   28.7134 H   0  0  0  0  0  0  0  0  0  0  0  0
  -11.8359   -2.9262   30.5209 H   0  0  0  0  0  0  0  0  0  0  0  0
  -11.2242    1.3760   28.5775 H   0  0  0  0  0  0  0  0  0  0  0  0
  -11.5884    1.4821   30.3458 H   0  0  0  0  0  0  0  0  0  0  0  0
   -9.4677    2.6768   29.7571 H   0  0  0  0  0  0  0  0  0  0  0  0
   -9.1389    1.2847   30.8685 H   0  0  0  0  0  0  0  0  0  0  0  0
   -8.7663    1.1396   29.1024 H   0  0  0  0  0  0  0  0  0  0  0  0
  -14.0170   -1.0935   28.1703 H   0  0  0  0  0  0  0  0  0  0  0  0
  -13.3465    0.5617   28.4952 H   0  0  0  0  0  0  0  0  0  0  0  0
  -12.4247   -0.6006   27.4458 H   0  0  0  0  0  0  0  0  0  0  0  0
  1  6  1  0  0  0  0
  1 13  1  0  0  0  0
  1 14  1  0  0  0  0
  1 15  1  0  0  0  0
  2  3  1  0  0  0  0
  2  6  1  0  0  0  0
  3  4  2  0  0  0  0
  3  5  1  0  0  0  0
  6  7  1  0  0  0  0
  6  8  1  0  0  0  0
  7  9  1  0  0  0  0
  7 10  1  0  0  0  0
  7 11  1  0  0  0  0
  8 21  1  0  0  0  0
  8 22  1  0  0  0  0
  8 23  1  0  0  0  0
 11 12  1  0  0  0  0
 11 16  1  0  0  0  0
 11 17  1  0  0  0  0
 12 18  1  0  0  0  0
 12 19  1  0  0  0  0
 12 20  1  0  0  0  0
M  CHG  2   3   1   5  -1
M  END
