  
  Mrv0541 02201500303D          

 26 27  0  0  0  0            999 V2000
    0.0000    0.0000    0.0000 C   0  0  0  0  0  0  0  0  0  0  0  0
    1.4141    0.0000    0.0000 C   0  0  0  0  0  0  0  0  0  0  0  0
    2.1101    0.0000    1.2043 C   0  0  0  0  0  0  0  0  0  0  0  0
    1.4299   -0.0030    2.4212 C   0  0  0  0  0  0  0  0  0  0  0  0
    0.0373    0.0044    2.4281 C   0  0  0  0  0  0  0  0  0  0  0  0
   -0.6806    0.0113    1.2344 C   0  0  0  0  0  0  0  0  0  0  0  0
   -0.6688   -0.0784   -1.2636 N   0  0  2  0  0  0  0  0  0  0  0  0
   -0.3282    0.8938   -2.3024 C   0  0  0  0  0  0  0  0  0  0  0  0
   -1.5797    1.1236   -3.0664 C   0  0  0  0  0  0  0  0  0  0  0  0
   -2.5691    0.3942   -2.4644 C   0  0  0  0  0  0  0  0  0  0  0  0
   -2.0771   -0.2491   -1.2619 N   0  0  1  0  0  0  0  0  0  0  0  0
    0.8028    1.3449   -2.4940 O   0  0  0  0  0  0  0  0  0  0  0  0
   -3.9812    0.2850   -2.8772 C   0  0  0  0  0  0  0  0  0  0  0  0
   -2.5272   -1.6281   -1.0849 C   0  0  0  0  0  0  0  0  0  0  0  0
   -4.2098   -0.7582   -3.2138 H   0  0  0  0  0  0  0  0  0  0  0  0
   -4.1803    0.9869   -3.7246 H   0  0  0  0  0  0  0  0  0  0  0  0
   -4.6658    0.5418   -2.0296 H   0  0  0  0  0  0  0  0  0  0  0  0
   -3.6471   -1.5962   -1.0359 H   0  0  0  0  0  0  0  0  0  0  0  0
   -2.1235   -2.0154   -0.1122 H   0  0  0  0  0  0  0  0  0  0  0  0
   -2.2096   -2.3186   -1.9102 H   0  0  0  0  0  0  0  0  0  0  0  0
   -1.6336    1.7867   -3.9245 H   0  0  0  0  0  0  0  0  0  0  0  0
    1.9698    0.0191   -0.9522 H   0  0  0  0  0  0  0  0  0  0  0  0
    3.2105    0.0033    1.1892 H   0  0  0  0  0  0  0  0  0  0  0  0
    1.9888   -0.0068    3.3677 H   0  0  0  0  0  0  0  0  0  0  0  0
   -0.5076    0.0108    3.3840 H   0  0  0  0  0  0  0  0  0  0  0  0
   -1.7797    0.0321    1.2795 H   0  0  0  0  0  0  0  0  0  0  0  0
  1  6  1  0  0  0  0
  2  1  2  0  0  0  0
  2  3  1  0  0  0  0
  3  4  2  0  0  0  0
  4  5  1  0  0  0  0
  4 24  1  0  0  0  0
  5 25  1  0  0  0  0
  6 26  1  0  0  0  0
  6  5  2  0  0  0  0
  7 11  1  0  0  0  0
  7  1  1  0  0  0  0
  8  7  1  0  0  0  0
  9 10  2  0  0  0  0
  9  8  1  0  0  0  0
 10 11  1  0  0  0  0
 11 14  1  0  0  0  0
 12  8  2  0  0  0  0
 13 10  1  0  0  0  0
 13 17  1  0  0  0  0
 14 18  1  0  0  0  0
 14 19  1  0  0  0  0
 15 13  1  0  0  0  0
 16 13  1  0  0  0  0
 20 14  1  0  0  0  0
 21  9  1  0  0  0  0
 22  2  1  0  0  0  0
 23  3  1  0  0  0  0
M  END