
  Mrv0541 02201500303D          

 24 25  0  0  0  0            999 V2000
    0.0000    0.0000    0.0000 O   0  0  0  0  0  0  0  0  0  0  0  0
    1.2452    0.0000    0.0000 C   0  0  0  0  0  0  0  0  0  0  0  0
    1.9759    0.0000    1.2063 N   0  0  0  0  0  0  0  0  0  0  0  0
    3.3943   -0.0018    1.2670 C   0  0  0  0  0  0  0  0  0  0  0  0
    3.9656   -0.0041    2.3795 O   0  0  0  0  0  0  0  0  0  0  0  0
    1.2821   -0.0021    2.4734 C   0  0  0  0  0  0  0  0  0  0  0  0
    2.0729    0.0001   -1.1926 C   0  0  0  0  0  0  0  0  0  0  0  0
    1.7340   -0.0002   -2.5497 N   0  0  0  0  0  0  0  0  0  0  0  0
    2.9408   -0.0009   -3.2474 C   0  0  0  0  0  0  0  0  0  0  0  0
    0.4180    0.0004   -3.1023 C   0  0  0  0  0  0  0  0  0  0  0  0
    3.5049   -0.0004   -1.1371 C   0  0  0  0  0  0  0  0  0  0  0  0
    4.1675    0.0007    0.0809 N   0  0  0  0  0  0  0  0  0  0  0  0
    5.6057   -0.0054    0.1343 C   0  0  0  0  0  0  0  0  0  0  0  0
    4.0342   -0.0011   -2.4374 N   0  0  0  0  0  0  0  0  0  0  0  0
    0.1748    0.0206    2.2950 H   0  0  0  0  0  0  0  0  0  0  0  0
    1.5909    0.8970    3.0708 H   0  0  0  0  0  0  0  0  0  0  0  0
    1.5566   -0.9258    3.0496 H   0  0  0  0  0  0  0  0  0  0  0  0
    2.9879   -0.0012   -4.3436 H   0  0  0  0  0  0  0  0  0  0  0  0
    0.2731   -0.9142   -3.7383 H   0  0  0  0  0  0  0  0  0  0  0  0
   -0.3387   -0.0001   -2.2693 H   0  0  0  0  0  0  0  0  0  0  0  0
    0.2734    0.9160   -3.7369 H   0  0  0  0  0  0  0  0  0  0  0  0
    5.9955   -0.9307   -0.3684 H   0  0  0  0  0  0  0  0  0  0  0  0
    5.9447    0.0128    1.2044 H   0  0  0  0  0  0  0  0  0  0  0  0
    6.0033    0.8971   -0.4025 H   0  0  0  0  0  0  0  0  0  0  0  0
  2  1  2  0  0  0  0
  2  3  1  0  0  0  0
  3  4  1  0  0  0  0
  3  6  1  0  0  0  0
  4  5  2  0  0  0  0
  6 17  1  0  0  0  0
  6 16  1  0  0  0  0
  7 11  2  0  0  0  0
  7  2  1  0  0  0  0
  8  7  1  0  0  0  0
  9  8  1  0  0  0  0
  9 14  2  0  0  0  0
 10  8  1  0  0  0  0
 10 20  1  0  0  0  0
 11 12  1  0  0  0  0
 12 13  1  0  0  0  0
 12  4  1  0  0  0  0
 13 23  1  0  0  0  0
 14 11  1  0  0  0  0
 15  6  1  0  0  0  0
 18  9  1  0  0  0  0
 19 10  1  0  0  0  0
 21 10  1  0  0  0  0
 22 13  1  0  0  0  0
 24 13  1  0  0  0  0
M  END