
  Mrv0541 02201500303D          

 29 30  0  0  0  0            999 V2000
    0.0000    0.0000    0.0000 O   0  0  0  0  0  0  0  0  0  0  0  0
    1.2207    0.0000    0.0000 N   0  0  0  0  0  0  0  0  0  0  0  0
    1.9377    0.0000    1.2418 C   0  0  0  0  0  0  0  0  0  0  0  0
    3.3597   -0.0082    1.2674 C   0  0  0  0  0  0  0  0  0  0  0  0
    4.1109   -0.0261    0.0460 N   0  0  0  0  0  0  0  0  0  0  0  0
    5.3337   -0.0417    0.0770 O   0  0  0  0  0  0  0  0  0  0  0  0
    4.0331   -0.0055    2.5175 C   0  0  0  0  0  0  0  0  0  0  0  0
    3.3109    0.0041    3.6917 C   0  0  0  0  0  0  0  0  0  0  0  0
    1.2217    0.0082    2.4691 C   0  0  0  0  0  0  0  0  0  0  0  0
    1.9034    0.0106    3.6671 C   0  0  0  0  0  0  0  0  0  0  0  0
    1.9716    0.0060   -1.1491 C   0  0  0  0  0  0  0  0  0  0  0  0
    3.3983   -0.0204   -1.1107 C   0  0  0  0  0  0  0  0  0  0  0  0
    1.2911   -0.0259   -2.4556 C   0  0  0  0  0  0  0  0  0  0  0  0
    1.5027    0.6840   -3.5214 N   0  0  0  0  0  0  0  0  0  0  0  0
    2.4687    1.6007   -3.6053 N   0  0  0  0  0  0  0  0  0  0  0  0
    2.5225    2.4430   -4.7364 C   0  0  0  0  0  0  0  0  0  0  0  0
    3.2927    3.5568   -4.4663 O   0  0  0  0  0  0  0  0  0  0  0  0
    3.5444    4.4060   -5.5901 C   0  0  0  0  0  0  0  0  0  0  0  0
    2.0511    2.2892   -5.8653 O   0  0  0  0  0  0  0  0  0  0  0  0
    3.8362    0.0062    4.6600 H   0  0  0  0  0  0  0  0  0  0  0  0
    5.1379   -0.0127    2.5226 H   0  0  0  0  0  0  0  0  0  0  0  0
    1.3448    0.0176    4.6166 H   0  0  0  0  0  0  0  0  0  0  0  0
    0.1173    0.0130    2.4387 H   0  0  0  0  0  0  0  0  0  0  0  0
    3.9805   -0.0734   -2.0492 H   0  0  0  0  0  0  0  0  0  0  0  0
    4.1776    5.2194   -5.1567 H   0  0  0  0  0  0  0  0  0  0  0  0
    4.0875    3.8379   -6.3827 H   0  0  0  0  0  0  0  0  0  0  0  0
    2.5801    4.8017   -5.9903 H   0  0  0  0  0  0  0  0  0  0  0  0
    2.8715    1.9886   -2.7664 H   0  0  0  0  0  0  0  0  0  0  0  0
    0.4490   -0.7463   -2.5457 H   0  0  0  0  0  0  0  0  0  0  0  0
  1  2  1  0  0  0  0
  2  3  1  0  0  0  0
  3  4  2  0  0  0  0
  3  9  1  0  0  0  0
  4  7  1  0  0  0  0
  5  6  1  0  0  0  0
  5  4  1  0  0  0  0
  7 21  1  0  0  0  0
  7  8  2  0  0  0  0
  8 20  1  0  0  0  0
  9 10  2  0  0  0  0
 10  8  1  0  0  0  0
 10 22  1  0  0  0  0
 11 12  2  0  0  0  0
 11  2  1  0  0  0  0
 12  5  1  0  0  0  0
 13 11  1  0  0  0  0
 14 13  2  0  0  0  0
 15 14  1  0  0  0  0
 15 28  1  0  0  0  0
 16 17  1  0  0  0  0
 16 15  1  0  0  0  0
 18 25  1  0  0  0  0
 18 17  1  0  0  0  0
 19 16  2  0  0  0  0
 23  9  1  0  0  0  0
 24 12  1  0  0  0  0
 26 18  1  0  0  0  0
 27 18  1  0  0  0  0
 29 13  1  0  0  0  0
M  END