
  Mrv0541 02201500303D          

 32 32  0  0  0  0            999 V2000
    0.0000    0.0000    0.0000 C   0  0  0  0  0  0  0  0  0  0  0  0
    1.3990    0.0000    0.0000 C   0  0  0  0  0  0  0  0  0  0  0  0
    2.1064    0.0000    1.1995 C   0  0  0  0  0  0  0  0  0  0  0  0
    1.3965   -0.0003    2.4108 C   0  0  0  0  0  0  0  0  0  0  0  0
   -0.0079    0.0084    2.4235 C   0  0  0  0  0  0  0  0  0  0  0  0
   -0.6968    0.0111    1.2138 C   0  0  0  0  0  0  0  0  0  0  0  0
   -0.7569    0.0127   -1.3009 C   0  0  2  0  0  0  0  0  0  0  0  0
   -0.8223   -1.4308   -1.8844 C   0  0  2  0  0  0  0  0  0  0  0  0
   -1.1708   -1.5088   -3.2853 N   0  0  0  0  0  0  0  0  0  0  0  0
   -2.0510   -0.6790   -3.9248 C   0  0  0  0  0  0  0  0  0  0  0  0
   -2.3617   -0.9771   -5.3945 C   0  0  1  0  0  0  0  0  0  0  0  0
   -1.7826   -2.2603   -0.9983 C   0  0  1  0  0  0  0  0  0  0  0  0
   -1.6878   -3.6368   -1.2898 O   0  0  0  0  0  0  0  0  0  0  0  0
   -0.0566    0.8721   -2.1869 O   0  0  0  0  0  0  0  0  0  0  0  0
    2.1406   -0.0048    3.6981 N   0  0  0  0  0  0  0  0  0  0  0  0
    3.3421   -0.0154    3.6756 O   0  0  0  0  0  0  0  0  0  0  0  0
    1.5209    0.0012    4.7281 O   0  0  0  0  0  0  0  0  0  0  0  0
   -0.5567    0.0160    3.3808 H   0  0  0  0  0  0  0  0  0  0  0  0
    3.2100    0.0022    1.1991 H   0  0  0  0  0  0  0  0  0  0  0  0
    1.9393    0.0195   -0.9607 H   0  0  0  0  0  0  0  0  0  0  0  0
   -1.7980    0.0282    1.2194 H   0  0  0  0  0  0  0  0  0  0  0  0
   -0.7201    1.2991   -2.7466 H   0  0  0  0  0  0  0  0  0  0  0  0
   -1.8080    0.3873   -1.1380 H   0  0  0  0  0  0  0  0  0  0  0  0
   -1.4533   -2.1715    0.0732 H   0  0  0  0  0  0  0  0  0  0  0  0
   -2.8370   -1.8933   -1.1029 H   0  0  0  0  0  0  0  0  0  0  0  0
   -2.1602   -3.7952   -2.1158 H   0  0  0  0  0  0  0  0  0  0  0  0
   -0.9146   -0.8492   -6.3659 Cl  0  0  0  0  0  0  0  0  0  0  0  0
   -3.1076   -2.5531   -5.5470 Cl  0  0  0  0  0  0  0  0  0  0  0  0
   -2.6039    0.2976   -3.3796 O   0  0  0  0  0  0  0  0  0  0  0  0
   -0.7201   -2.2252   -3.8075 H   0  0  0  0  0  0  0  0  0  0  0  0
    0.2124   -1.8833   -1.7935 H   0  0  0  0  0  0  0  0  0  0  0  0
   -3.0943   -0.2206   -5.7768 H   0  0  0  0  0  0  0  0  0  0  0  0
  1  6  1  0  0  0  0
  2  1  2  0  0  0  0
  2  3  1  0  0  0  0
  3  4  2  0  0  0  0
  4  5  1  0  0  0  0
  4 15  1  0  0  0  0
  5 18  1  0  0  0  0
  6 21  1  0  0  0  0
  6  5  2  0  0  0  0
  7 23  1  1  0  0  0
  7  1  1  0  0  0  0
  8 31  1  1  0  0  0
  8  7  1  0  0  0  0
  8 12  1  0  0  0  0
  9  8  1  0  0  0  0
 10 29  2  0  0  0  0
 10  9  1  0  0  0  0
 11 10  1  0  0  0  0
 12 24  1  0  0  0  0
 13 12  1  0  0  0  0
 14  7  1  0  0  0  0
 15 17  2  0  0  0  0
 16 15  2  0  0  0  0
 19  3  1  0  0  0  0
 20  2  1  0  0  0  0
 22 14  1  0  0  0  0
 25 12  1  0  0  0  0
 26 13  1  0  0  0  0
 27 11  1  0  0  0  0
 28 11  1  0  0  0  0
 30  9  1  0  0  0  0
 32 11  1  0  0  0  0
M  END