
  Mrv0541 02201500303D          

 47 50  0  0  0  0            999 V2000
    0.0000    0.0000    0.0000 Cl  0  0  0  0  0  0  0  0  0  0  0  0
    1.7018    0.0000    0.0000 C   0  0  0  0  0  0  0  0  0  0  0  0
    2.4128    0.0000    1.2111 C   0  0  0  0  0  0  0  0  0  0  0  0
    1.7086   -0.0289    2.4879 C   0  0  0  0  0  0  0  0  0  0  0  0
    1.2641    1.0553    3.1575 N   0  0  0  0  0  0  0  0  0  0  0  0
    0.6842    0.6669    4.2741 O   0  0  0  0  0  0  0  0  0  0  0  0
    1.3651   -1.2275    3.2633 C   0  0  0  0  0  0  0  0  0  0  0  0
    1.7286   -2.6140    2.9425 C   0  0  0  0  0  0  0  0  0  0  0  0
    2.8676   -3.0755    3.1243 O   0  0  0  0  0  0  0  0  0  0  0  0
    0.7460   -3.4693    2.4501 N   0  0  0  0  0  0  0  0  0  0  0  0
   -0.5454   -3.0597    2.0642 C   0  0  1  0  0  0  0  0  0  0  0  0
   -1.2380   -3.8630    0.8886 C   0  0  1  0  0  0  0  0  0  0  0  0
   -0.4822   -5.3475    0.2755 S   0  0  0  0  0  0  0  0  0  0  0  0
   -1.6089   -6.4787    1.1524 C   0  0  2  0  0  0  0  0  0  0  0  0
   -0.8292   -7.1971    2.2300 C   0  0  0  0  0  0  0  0  0  0  0  0
   -2.1435   -7.4627    0.1407 C   0  0  0  0  0  0  0  0  0  0  0  0
   -2.3688   -4.1980    1.7848 N   0  0  1  0  0  0  0  0  0  0  0  0
   -2.7274   -5.6025    1.7934 C   0  0  1  0  0  0  0  0  0  0  0  0
   -4.0697   -5.8667    1.1112 C   0  0  0  0  0  0  0  0  0  0  0  0
   -4.4641   -5.1965   -0.0038 O   0  0  0  0  0  0  0  0  0  0  0  0
   -4.8784   -6.7043    1.5087 O   0  0  0  0  0  0  0  0  0  0  0  0
   -1.7397   -3.5870    2.9375 C   0  0  0  0  0  0  0  0  0  0  0  0
   -2.0837   -3.5116    4.1036 O   0  0  0  0  0  0  0  0  0  0  0  0
    0.7217   -0.7412    4.3904 C   0  0  0  0  0  0  0  0  0  0  0  0
    0.1208   -1.3211    5.5894 C   0  0  0  0  0  0  0  0  0  0  0  0
    3.8170    0.0375    1.1702 C   0  0  0  0  0  0  0  0  0  0  0  0
    4.7205    0.0832    2.6030 Cl  0  0  0  0  0  0  0  0  0  0  0  0
    4.4910    0.0431   -0.0565 C   0  0  0  0  0  0  0  0  0  0  0  0
    2.3741    0.0087   -1.2251 C   0  0  0  0  0  0  0  0  0  0  0  0
    3.7675    0.0258   -1.2460 C   0  0  0  0  0  0  0  0  0  0  0  0
   -1.4861   -7.9350    2.7546 H   0  0  0  0  0  0  0  0  0  0  0  0
    0.0308   -7.7502    1.7788 H   0  0  0  0  0  0  0  0  0  0  0  0
   -0.4309   -6.4743    2.9829 H   0  0  0  0  0  0  0  0  0  0  0  0
   -2.6712   -6.9352   -0.6924 H   0  0  0  0  0  0  0  0  0  0  0  0
   -2.8654   -8.1644    0.6308 H   0  0  0  0  0  0  0  0  0  0  0  0
   -1.3051   -8.0614   -0.2926 H   0  0  0  0  0  0  0  0  0  0  0  0
   -3.8142   -4.5237   -0.2491 H   0  0  0  0  0  0  0  0  0  0  0  0
   -2.8764   -5.9298    2.8713 H   0  0  0  0  0  0  0  0  0  0  0  0
   -1.5364   -3.2019    0.0421 H   0  0  0  0  0  0  0  0  0  0  0  0
   -0.6087   -1.9470    1.9181 H   0  0  0  0  0  0  0  0  0  0  0  0
    1.0228   -4.3999    2.2034 H   0  0  0  0  0  0  0  0  0  0  0  0
   -0.3314   -0.5237    6.2314 H   0  0  0  0  0  0  0  0  0  0  0  0
    0.9037   -1.8609    6.1816 H   0  0  0  0  0  0  0  0  0  0  0  0
   -0.6799   -2.0534    5.3020 H   0  0  0  0  0  0  0  0  0  0  0  0
    5.5919    0.0636   -0.0784 H   0  0  0  0  0  0  0  0  0  0  0  0
    4.2991    0.0305   -2.2102 H   0  0  0  0  0  0  0  0  0  0  0  0
    1.8062    0.0071   -2.1682 H   0  0  0  0  0  0  0  0  0  0  0  0
  1  2  1  0  0  0  0
  2  3  2  0  0  0  0
  3  4  1  0  0  0  0
  4  5  2  0  0  0  0
  4  7  1  0  0  0  0
  5  6  1  0  0  0  0
  6 24  1  0  0  0  0
  7 24  2  0  0  0  0
  8  9  2  0  0  0  0
  8  7  1  0  0  0  0
 10  8  1  0  0  0  0
 11 10  1  0  0  0  0
 11 22  1  0  0  0  0
 11 40  1  6  0  0  0
 12 17  1  0  0  0  0
 12 11  1  0  0  0  0
 12 39  1  6  0  0  0
 13 12  1  0  0  0  0
 13 14  1  0  0  0  0
 14 18  1  0  0  0  0
 14 15  1  0  0  0  0
 15 31  1  0  0  0  0
 15 33  1  0  0  0  0
 16 35  1  0  0  0  0
 16 14  1  0  0  0  0
 17 18  1  0  0  0  0
 17 22  1  0  0  0  0
 18 38  1  1  0  0  0
 19 21  2  0  0  0  0
 19 18  1  0  0  0  0
 20 19  1  0  0  0  0
 22 23  2  0  0  0  0
 24 25  1  0  0  0  0
 25 43  1  0  0  0  0
 25 42  1  0  0  0  0
 26  3  1  0  0  0  0
 26 27  1  0  0  0  0
 28 26  2  0  0  0  0
 29  2  1  0  0  0  0
 30 29  2  0  0  0  0
 30 28  1  0  0  0  0
 32 15  1  0  0  0  0
 34 16  1  0  0  0  0
 36 16  1  0  0  0  0
 37 20  1  0  0  0  0
 41 10  1  0  0  0  0
 44 25  1  0  0  0  0
 45 28  1  0  0  0  0
 46 30  1  0  0  0  0
 47 29  1  0  0  0  0
M  END