
  Mrv0541 02201500303D          

 31 33  0  0  0  0            999 V2000
    0.0000    0.0000    0.0000 F   0  0  0  0  0  0  0  0  0  0  0  0
    1.3550    0.0000    0.0000 C   0  0  0  0  0  0  0  0  0  0  0  0
    2.0506    0.0000    1.2256 C   0  0  0  0  0  0  0  0  0  0  0  0
    3.4385   -0.0006    1.2452 C   0  0  0  0  0  0  0  0  0  0  0  0
    4.1538   -0.0237    2.5491 C   0  0  1  0  0  0  0  0  0  0  0  0
    5.5396    0.5711    2.4402 C   0  0  1  0  0  0  0  0  0  0  0  0
    4.1659    0.0017    0.0241 C   0  0  0  0  0  0  0  0  0  0  0  0
    5.5716    0.0171    0.0183 N   0  0  0  0  0  0  0  0  0  0  0  0
    6.3287   -0.0283    1.2702 C   0  0  2  0  0  0  0  0  0  0  0  0
    6.8108   -1.4367    1.6210 C   0  0  0  0  0  0  0  0  0  0  0  0
    6.2469   -0.0096   -1.1720 C   0  0  0  0  0  0  0  0  0  0  0  0
    2.0609    0.0006   -1.2081 C   0  0  0  0  0  0  0  0  0  0  0  0
    3.4598    0.0015   -1.2043 C   0  0  0  0  0  0  0  0  0  0  0  0
    4.1699   -0.0004   -2.5061 C   0  0  0  0  0  0  0  0  0  0  0  0
    3.5482    0.0063   -3.5761 O   0  0  0  0  0  0  0  0  0  0  0  0
    5.6285   -0.0113   -2.4006 C   0  0  0  0  0  0  0  0  0  0  0  0
    6.4376   -0.0233   -3.6137 C   0  0  0  0  0  0  0  0  0  0  0  0
    7.7954   -0.0283   -3.3816 O   0  0  0  0  0  0  0  0  0  0  0  0
    6.1087   -0.0307   -4.8012 O   0  0  0  0  0  0  0  0  0  0  0  0
    5.4631    1.6822    2.3044 H   0  0  0  0  0  0  0  0  0  0  0  0
    6.1127    0.3814    3.3845 H   0  0  0  0  0  0  0  0  0  0  0  0
    3.5665    0.5440    3.3201 H   0  0  0  0  0  0  0  0  0  0  0  0
    4.2234   -1.0893    2.9038 H   0  0  0  0  0  0  0  0  0  0  0  0
    7.4145   -1.8688    0.7867 H   0  0  0  0  0  0  0  0  0  0  0  0
    7.4522   -1.3800    2.5331 H   0  0  0  0  0  0  0  0  0  0  0  0
    5.9512   -2.1177    1.8285 H   0  0  0  0  0  0  0  0  0  0  0  0
    7.2469    0.6193    1.1127 H   0  0  0  0  0  0  0  0  0  0  0  0
    7.3564   -0.0215   -1.1000 H   0  0  0  0  0  0  0  0  0  0  0  0
    1.4824    0.0007    2.1687 H   0  0  0  0  0  0  0  0  0  0  0  0
    8.2605   -0.0353   -4.2331 H   0  0  0  0  0  0  0  0  0  0  0  0
    1.5262    0.0008   -2.1740 H   0  0  0  0  0  0  0  0  0  0  0  0
  1  2  1  0  0  0  0
  2  3  2  0  0  0  0
  3  4  1  0  0  0  0
  3 29  1  0  0  0  0
  4  5  1  0  0  0  0
  5 23  1  0  0  0  0
  5 22  1  0  0  0  0
  6  5  1  0  0  0  0
  6 21  1  0  0  0  0
  7  4  2  0  0  0  0
  8  7  1  0  0  0  0
  8  9  1  0  0  0  0
  9 10  1  0  0  0  0
  9  6  1  0  0  0  0
  9 27  1  6  0  0  0
 10 26  1  0  0  0  0
 10 25  1  0  0  0  0
 11 28  1  0  0  0  0
 11  8  1  0  0  0  0
 12 13  2  0  0  0  0
 12  2  1  0  0  0  0
 13  7  1  0  0  0  0
 14 16  1  0  0  0  0
 14 13  1  0  0  0  0
 15 14  2  0  0  0  0
 16 11  2  0  0  0  0
 17 18  1  0  0  0  0
 17 16  1  0  0  0  0
 19 17  2  0  0  0  0
 20  6  1  0  0  0  0
 24 10  1  0  0  0  0
 30 18  1  0  0  0  0
 31 12  1  0  0  0  0
M  END