
  Mrv0541 02201500303D          

 33 34  0  0  0  0            999 V2000
    0.0000    0.0000    0.0000 O   0  0  0  0  0  0  0  0  0  0  0  0
    1.3626    0.0000    0.0000 C   0  0  0  0  0  0  0  0  0  0  0  0
    1.9176    0.0000    1.1019 O   0  0  0  0  0  0  0  0  0  0  0  0
    1.9669   -0.0230   -1.3816 C   0  0  1  0  0  0  0  0  0  0  0  0
    2.6445    1.2783   -1.6786 C   0  0  0  0  0  0  0  0  0  0  0  0
    3.5947    1.8056   -0.7967 C   0  0  0  0  0  0  0  0  0  0  0  0
    4.2352    3.0124   -1.0926 C   0  0  0  0  0  0  0  0  0  0  0  0
    3.9165    3.6983   -2.2727 C   0  0  0  0  0  0  0  0  0  0  0  0
    5.2205    3.6102   -0.1615 C   0  0  0  0  0  0  0  0  0  0  0  0
    5.3241    4.8398   -0.0504 O   0  0  0  0  0  0  0  0  0  0  0  0
    6.0751    2.6947    0.6258 C   0  0  0  0  0  0  0  0  0  0  0  0
    6.4842    1.4573    0.1151 C   0  0  0  0  0  0  0  0  0  0  0  0
    7.3120    0.6289    0.8709 C   0  0  0  0  0  0  0  0  0  0  0  0
    7.7301    1.0270    2.1411 C   0  0  0  0  0  0  0  0  0  0  0  0
    6.5088    3.0968    1.8966 C   0  0  0  0  0  0  0  0  0  0  0  0
    7.3277    2.2605    2.6531 C   0  0  0  0  0  0  0  0  0  0  0  0
    2.3391    1.9645   -2.8594 C   0  0  0  0  0  0  0  0  0  0  0  0
    2.9763    3.1691   -3.1538 C   0  0  0  0  0  0  0  0  0  0  0  0
    2.9379   -1.1865   -1.4817 C   0  0  0  0  0  0  0  0  0  0  0  0
    4.4092    4.6604   -2.4873 H   0  0  0  0  0  0  0  0  0  0  0  0
    8.3785    0.3683    2.7379 H   0  0  0  0  0  0  0  0  0  0  0  0
    7.6345   -0.3407    0.4641 H   0  0  0  0  0  0  0  0  0  0  0  0
    6.1552    1.1417   -0.8872 H   0  0  0  0  0  0  0  0  0  0  0  0
    7.6589    2.5771    3.6531 H   0  0  0  0  0  0  0  0  0  0  0  0
    6.1994    4.0803    2.2850 H   0  0  0  0  0  0  0  0  0  0  0  0
    3.8201    1.2708    0.1433 H   0  0  0  0  0  0  0  0  0  0  0  0
    2.7297    3.7072   -4.0812 H   0  0  0  0  0  0  0  0  0  0  0  0
    1.5911    1.5565   -3.5566 H   0  0  0  0  0  0  0  0  0  0  0  0
    3.4078   -1.1993   -2.4939 H   0  0  0  0  0  0  0  0  0  0  0  0
    3.7402   -1.0895   -0.7102 H   0  0  0  0  0  0  0  0  0  0  0  0
    2.4004   -2.1517   -1.3211 H   0  0  0  0  0  0  0  0  0  0  0  0
    1.1279   -0.1819   -2.1209 H   0  0  0  0  0  0  0  0  0  0  0  0
   -0.3278    0.0216    0.9143 H   0  0  0  0  0  0  0  0  0  0  0  0
  1 33  1  0  0  0  0
  2  1  1  0  0  0  0
  2  3  2  0  0  0  0
  4  2  1  0  0  0  0
  4 32  1  6  0  0  0
  5  4  1  0  0  0  0
  5  6  2  0  0  0  0
  6 26  1  0  0  0  0
  7  6  1  0  0  0  0
  7  9  1  0  0  0  0
  8  7  2  0  0  0  0
  9 10  2  0  0  0  0
  9 11  1  0  0  0  0
 11 15  1  0  0  0  0
 12 11  2  0  0  0  0
 12 13  1  0  0  0  0
 13 14  2  0  0  0  0
 14 16  1  0  0  0  0
 14 21  1  0  0  0  0
 15 25  1  0  0  0  0
 15 16  2  0  0  0  0
 16 24  1  0  0  0  0
 17  5  1  0  0  0  0
 18 17  2  0  0  0  0
 18  8  1  0  0  0  0
 19  4  1  0  0  0  0
 19 31  1  0  0  0  0
 19 30  1  0  0  0  0
 20  8  1  0  0  0  0
 22 13  1  0  0  0  0
 23 12  1  0  0  0  0
 27 18  1  0  0  0  0
 28 17  1  0  0  0  0
 29 19  1  0  0  0  0
M  END