
  Mrv0541 02201500303D          

 45 48  0  0  0  0            999 V2000
    0.0000    0.0000    0.0000 C   0  0  0  0  0  0  0  0  0  0  0  0
    1.4096    0.0000    0.0000 C   0  0  0  0  0  0  0  0  0  0  0  0
    2.1200    0.0000    1.2295 N   0  0  0  0  0  0  0  0  0  0  0  0
    1.4209    0.1523    2.4076 C   0  0  0  0  0  0  0  0  0  0  0  0
    0.0430    0.1502    2.4698 C   0  0  0  0  0  0  0  0  0  0  0  0
   -0.7626    0.0475    1.2613 C   0  0  0  0  0  0  0  0  0  0  0  0
    4.1839   -1.1788    1.5436 C   0  0  0  0  0  0  0  0  0  0  0  0
    3.5149    0.0959    1.2397 N   0  0  1  0  0  0  0  0  0  0  0  0
    4.0264    0.6736   -0.0248 C   0  0  1  0  0  0  0  0  0  0  0  0
    3.5071    0.0407   -1.2076 O   0  0  0  0  0  0  0  0  0  0  0  0
    2.1142    0.0264   -1.2316 C   0  0  0  0  0  0  0  0  0  0  0  0
   -0.6727   -0.0428   -1.2229 C   0  0  0  0  0  0  0  0  0  0  0  0
    0.0220   -0.0668   -2.4354 C   0  0  0  0  0  0  0  0  0  0  0  0
    1.4550    0.0045   -2.4857 C   0  0  0  0  0  0  0  0  0  0  0  0
    1.5324    0.6291   -4.8643 C   0  0  2  0  0  0  0  0  0  0  0  0
    2.5547    1.0979   -5.9215 C   0  0  2  0  0  0  0  0  0  0  0  0
    3.0290    2.0598   -5.5687 H   0  0  0  0  0  0  0  0  0  0  0  0
    4.1895   -0.4473   -5.0331 C   0  0  1  0  0  0  0  0  0  0  0  0
    3.1779   -0.9043   -3.9613 C   0  0  1  0  0  0  0  0  0  0  0  0
    2.6702   -1.8475   -4.3186 H   0  0  0  0  0  0  0  0  0  0  0  0
    4.5102    0.5301   -7.2150 C   0  0  0  0  0  0  0  0  0  0  0  0
   -0.5421    0.2514    3.8152 C   0  0  0  0  0  0  0  0  0  0  0  0
   -2.0071    0.0090    1.2618 O   0  0  0  0  0  0  0  0  0  0  0  0
   -1.8806    0.2757    4.0355 O   0  0  0  0  0  0  0  0  0  0  0  0
    0.1229    0.3230    4.8587 O   0  0  0  0  0  0  0  0  0  0  0  0
    3.7465   -1.6312    2.4718 H   0  0  0  0  0  0  0  0  0  0  0  0
    5.2578   -0.9213    1.7399 H   0  0  0  0  0  0  0  0  0  0  0  0
    4.1257   -1.9262    0.7090 H   0  0  0  0  0  0  0  0  0  0  0  0
    2.0199    0.2413    3.3435 H   0  0  0  0  0  0  0  0  0  0  0  0
   -2.3857    0.2119    3.2096 H   0  0  0  0  0  0  0  0  0  0  0  0
   -1.7774   -0.0712   -1.2229 H   0  0  0  0  0  0  0  0  0  0  0  0
   -0.7030   -0.1484   -3.5796 F   0  0  0  0  0  0  0  0  0  0  0  0
    3.7532   -1.1463   -3.0253 H   0  0  0  0  0  0  0  0  0  0  0  0
    4.8950    0.3011   -4.5672 H   0  0  0  0  0  0  0  0  0  0  0  0
    4.7909   -1.3497   -5.3361 H   0  0  0  0  0  0  0  0  0  0  0  0
    2.1894    0.1218   -3.6739 N   0  0  0  0  0  0  0  0  0  0  0  0
    0.8685   -0.1566   -5.3301 H   0  0  0  0  0  0  0  0  0  0  0  0
    1.9838    1.3180   -6.8665 H   0  0  0  0  0  0  0  0  0  0  0  0
    5.1390    1.3955   -6.8667 H   0  0  0  0  0  0  0  0  0  0  0  0
    5.1899   -0.3247   -7.4698 H   0  0  0  0  0  0  0  0  0  0  0  0
    3.9571    0.8404   -8.1398 H   0  0  0  0  0  0  0  0  0  0  0  0
    3.7716    1.7698   -0.0429 H   0  0  0  0  0  0  0  0  0  0  0  0
    0.8927    1.5095   -4.5790 H   0  0  0  0  0  0  0  0  0  0  0  0
    5.1370    0.5092   -0.0958 H   0  0  0  0  0  0  0  0  0  0  0  0
    3.5525    0.0836   -6.2294 N   0  0  2  0  0  0  0  0  0  0  0  0
  1  2  1  0  0  0  0
  1  6  1  0  0  0  0
  2  3  1  0  0  0  0
  3  8  1  0  0  0  0
  3  4  1  0  0  0  0
  4  5  2  0  0  0  0
  4 29  1  0  0  0  0
  5 22  1  0  0  0  0
  6 23  2  0  0  0  0
  6  5  1  0  0  0  0
  7 27  1  0  0  0  0
  7 26  1  0  0  0  0
  8  7  1  0  0  0  0
  9  8  1  0  0  0  0
 10  9  1  0  0  0  0
 11 10  1  0  0  0  0
 11  2  2  0  0  0  0
 12  1  2  0  0  0  0
 13 12  1  0  0  0  0
 14 13  2  0  0  0  0
 14 11  1  0  0  0  0
 15 43  1  0  0  0  0
 15 36  1  0  0  0  0
 16 17  1  0  0  0  0
 16 15  1  0  0  0  0
 18 34  1  0  0  0  0
 18 19  1  0  0  0  0
 19 36  1  0  0  0  0
 19 33  1  0  0  0  0
 20 19  1  0  0  0  0
 21 39  1  0  0  0  0
 21 45  1  0  0  0  0
 22 24  1  0  0  0  0
 22 25  2  0  0  0  0
 28  7  1  0  0  0  0
 30 24  1  0  0  0  0
 31 12  1  0  0  0  0
 32 13  1  0  0  0  0
 35 18  1  0  0  0  0
 36 14  1  0  0  0  0
 37 15  1  0  0  0  0
 38 16  1  0  0  0  0
 40 21  1  0  0  0  0
 41 21  1  0  0  0  0
 42  9  1  0  0  0  0
 44  9  1  0  0  0  0
 45 16  1  0  0  0  0
 45 18  1  0  0  0  0
M  END