
  Mrv0541 02201500303D          

 21 21  0  0  0  0            999 V2000
    0.0000    0.0000    0.0000 O   0  0  0  0  0  0  0  0  0  0  0  0
    1.4175    0.0000    0.0000 C   0  0  2  0  0  0  0  0  0  0  0  0
    1.8725    0.0000    1.4668 C   0  0  2  0  0  0  0  0  0  0  0  0
    1.6979    1.2479    2.1553 N   0  0  0  0  0  0  0  0  0  0  0  0
    0.5874    1.6426    2.9119 C   0  0  0  0  0  0  0  0  0  0  0  0
    0.7472    2.9117    3.4104 N   0  0  0  0  0  0  0  0  0  0  0  0
   -0.5943    0.7686    3.1292 C   0  0  0  0  0  0  0  0  0  0  0  0
    2.5825    2.3511    2.1652 C   0  0  0  0  0  0  0  0  0  0  0  0
    3.8703    2.4309    1.4948 N   0  0  0  0  0  0  0  0  0  0  0  0
    4.5200    3.4320    1.6395 O   0  0  0  0  0  0  0  0  0  0  0  0
    4.2541    1.5129    0.8135 O   0  0  0  0  0  0  0  0  0  0  0  0
    1.9657    3.3592    2.9608 C   0  0  0  0  0  0  0  0  0  0  0  0
   -1.4169    1.3483    3.6168 H   0  0  0  0  0  0  0  0  0  0  0  0
   -0.9585    0.3686    2.1470 H   0  0  0  0  0  0  0  0  0  0  0  0
   -0.3150   -0.0892    3.7912 H   0  0  0  0  0  0  0  0  0  0  0  0
    2.3683    4.3471    3.1997 H   0  0  0  0  0  0  0  0  0  0  0  0
    2.9678   -0.2727    1.4867 H   0  0  0  0  0  0  0  0  0  0  0  0
    1.2799   -0.7820    2.0248 H   0  0  0  0  0  0  0  0  0  0  0  0
    1.8224    0.8883   -0.5522 H   0  0  0  0  0  0  0  0  0  0  0  0
    1.7949   -0.9417   -0.4833 H   0  0  0  0  0  0  0  0  0  0  0  0
   -0.2816    0.1567   -0.9088 H   0  0  0  0  0  0  0  0  0  0  0  0
  1  2  1  0  0  0  0
  2  3  1  0  0  0  0
  3 17  1  0  0  0  0
  3 18  1  0  0  0  0
  3  4  1  0  0  0  0
  4  8  1  0  0  0  0
  4  5  1  0  0  0  0
  5  7  1  0  0  0  0
  5  6  2  0  0  0  0
  7 13  1  0  0  0  0
  7 15  1  0  0  0  0
  8 12  2  0  0  0  0
  9 10  2  0  0  0  0
  9  8  1  0  0  0  0
 11  9  2  0  0  0  0
 12 16  1  0  0  0  0
 12  6  1  0  0  0  0
 14  7  1  0  0  0  0
 19  2  1  0  0  0  0
 20  2  1  0  0  0  0
 21  1  1  0  0  0  0
M  END