
  Mrv0541 02201500303D          

 29 30  0  0  0  0            999 V2000
    0.0000    0.0000    0.0000 O   0  0  0  0  0  0  0  0  0  0  0  0
    1.2381    0.0000    0.0000 C   0  0  0  0  0  0  0  0  0  0  0  0
    2.0069    0.0000    1.2586 C   0  0  0  0  0  0  0  0  0  0  0  0
    3.4330   -0.0452    1.2830 C   0  0  0  0  0  0  0  0  0  0  0  0
    4.1378   -0.1174    0.0574 N   0  0  0  0  0  0  0  0  0  0  0  0
    5.5931   -0.1306    0.0211 C   0  0  1  0  0  0  0  0  0  0  0  0
    6.2448    1.2350    0.1606 C   0  0  0  0  0  0  0  0  0  0  0  0
    4.1463   -0.0319    2.4570 N   0  0  0  0  0  0  0  0  0  0  0  0
    3.4605    0.0157    3.6128 C   0  0  0  0  0  0  0  0  0  0  0  0
    4.2108    0.0289    4.9074 C   0  0  0  0  0  0  0  0  0  0  0  0
    1.3268    0.0491    2.4875 C   0  0  0  0  0  0  0  0  0  0  0  0
    2.0434    0.0566    3.6716 C   0  0  0  0  0  0  0  0  0  0  0  0
    2.0656   -0.0052   -1.2057 C   0  0  0  0  0  0  0  0  0  0  0  0
    3.4360   -0.0580   -1.1187 C   0  0  0  0  0  0  0  0  0  0  0  0
    1.4279    0.0451   -2.5168 C   0  0  0  0  0  0  0  0  0  0  0  0
    2.2986   -0.1220   -3.5702 O   0  0  0  0  0  0  0  0  0  0  0  0
    0.2493    0.2194   -2.8316 O   0  0  0  0  0  0  0  0  0  0  0  0
    5.9269    1.9227   -0.6593 H   0  0  0  0  0  0  0  0  0  0  0  0
    5.9898    1.7062    1.1401 H   0  0  0  0  0  0  0  0  0  0  0  0
    7.3529    1.1032    0.1073 H   0  0  0  0  0  0  0  0  0  0  0  0
    5.9650   -0.8076    0.8429 H   0  0  0  0  0  0  0  0  0  0  0  0
    5.9056   -0.5890   -0.9621 H   0  0  0  0  0  0  0  0  0  0  0  0
    3.9498    0.9588    5.4709 H   0  0  0  0  0  0  0  0  0  0  0  0
    3.9041   -0.8582    5.5153 H   0  0  0  0  0  0  0  0  0  0  0  0
    5.3182   -0.0026    4.7635 H   0  0  0  0  0  0  0  0  0  0  0  0
    1.5388    0.0941    4.6459 H   0  0  0  0  0  0  0  0  0  0  0  0
    0.2233    0.0809    2.4778 H   0  0  0  0  0  0  0  0  0  0  0  0
    4.0527   -0.0714   -2.0447 H   0  0  0  0  0  0  0  0  0  0  0  0
    1.8002   -0.0781   -4.4016 H   0  0  0  0  0  0  0  0  0  0  0  0
  1  2  2  0  0  0  0
  2  3  1  0  0  0  0
  3  4  2  0  0  0  0
  3 11  1  0  0  0  0
  4  8  1  0  0  0  0
  5  4  1  0  0  0  0
  6  5  1  0  0  0  0
  6  7  1  0  0  0  0
  6 21  1  0  0  0  0
  7 19  1  0  0  0  0
  8  9  2  0  0  0  0
  9 12  1  0  0  0  0
  9 10  1  0  0  0  0
 10 23  1  0  0  0  0
 10 24  1  0  0  0  0
 11 12  2  0  0  0  0
 12 26  1  0  0  0  0
 13 14  2  0  0  0  0
 13  2  1  0  0  0  0
 14  5  1  0  0  0  0
 15 13  1  0  0  0  0
 16 15  1  0  0  0  0
 17 15  2  0  0  0  0
 18  7  1  0  0  0  0
 20  7  1  0  0  0  0
 22  6  1  0  0  0  0
 25 10  1  0  0  0  0
 27 11  1  0  0  0  0
 28 14  1  0  0  0  0
 29 16  1  0  0  0  0
M  END