
  Mrv0541 02201500303D          

 32 33  0  0  0  0            999 V2000
    0.0000    0.0000    0.0000 O   0  0  0  0  0  0  0  0  0  0  0  0
    1.2284    0.0000    0.0000 N   0  0  0  0  0  0  0  0  0  0  0  0
    1.9714    0.0000    1.1482 C   0  0  0  0  0  0  0  0  0  0  0  0
    3.4038    0.0424    1.1438 C   0  0  0  0  0  0  0  0  0  0  0  0
    4.1099    0.0496   -0.0331 N   0  0  0  0  0  0  0  0  0  0  0  0
    5.3327    0.0916   -0.0758 O   0  0  0  0  0  0  0  0  0  0  0  0
    4.1221    0.0635    2.4501 C   0  0  0  0  0  0  0  0  0  0  0  0
    1.2605   -0.0900    2.4812 C   0  0  0  0  0  0  0  0  0  0  0  0
    1.6080   -0.9427    3.3165 O   0  0  0  0  0  0  0  0  0  0  0  0
    0.2796    0.8552    2.7242 N   0  0  0  0  0  0  0  0  0  0  0  0
   -0.7124    0.6286    3.7451 C   0  0  1  0  0  0  0  0  0  0  0  0
   -1.9258   -0.1990    3.2883 C   0  0  2  0  0  0  0  0  0  0  0  0
   -2.5328    0.3444    2.1349 O   0  0  0  0  0  0  0  0  0  0  0  0
    1.9407   -0.0100   -1.2378 C   0  0  0  0  0  0  0  0  0  0  0  0
    3.3618    0.0168   -1.2519 C   0  0  0  0  0  0  0  0  0  0  0  0
    4.0415    0.0094   -2.5013 C   0  0  0  0  0  0  0  0  0  0  0  0
    3.3262   -0.0234   -3.6777 C   0  0  0  0  0  0  0  0  0  0  0  0
    1.2295   -0.0430   -2.4689 C   0  0  0  0  0  0  0  0  0  0  0  0
    1.9174   -0.0498   -3.6618 C   0  0  0  0  0  0  0  0  0  0  0  0
    4.0377   -0.9461    2.9293 H   0  0  0  0  0  0  0  0  0  0  0  0
    5.2043    0.3186    2.3249 H   0  0  0  0  0  0  0  0  0  0  0  0
    3.6442    0.8162    3.1253 H   0  0  0  0  0  0  0  0  0  0  0  0
   -1.9883    0.1019    1.3728 H   0  0  0  0  0  0  0  0  0  0  0  0
   -2.7176   -0.1496    4.0833 H   0  0  0  0  0  0  0  0  0  0  0  0
   -1.6302   -1.2678    3.1191 H   0  0  0  0  0  0  0  0  0  0  0  0
   -0.2305    0.1039    4.6174 H   0  0  0  0  0  0  0  0  0  0  0  0
   -1.0715    1.6428    4.0808 H   0  0  0  0  0  0  0  0  0  0  0  0
   -0.0552    1.3725    1.9372 H   0  0  0  0  0  0  0  0  0  0  0  0
    3.8563   -0.0293   -4.6434 H   0  0  0  0  0  0  0  0  0  0  0  0
    5.1463    0.0303   -2.5008 H   0  0  0  0  0  0  0  0  0  0  0  0
    1.3658   -0.0767   -4.6149 H   0  0  0  0  0  0  0  0  0  0  0  0
    0.1255   -0.0643   -2.4422 H   0  0  0  0  0  0  0  0  0  0  0  0
  1  2  1  0  0  0  0
  2  3  1  0  0  0  0
  3  8  1  0  0  0  0
  4  3  2  0  0  0  0
  4  7  1  0  0  0  0
  5  4  1  0  0  0  0
  6  5  1  0  0  0  0
  7 20  1  0  0  0  0
  7 22  1  0  0  0  0
  8 10  1  0  0  0  0
  8  9  2  0  0  0  0
 10 11  1  0  0  0  0
 11 27  1  0  0  0  0
 11 26  1  0  0  0  0
 12 11  1  0  0  0  0
 12 24  1  0  0  0  0
 13 12  1  0  0  0  0
 14  2  1  0  0  0  0
 15 14  1  0  0  0  0
 15  5  1  0  0  0  0
 16 30  1  0  0  0  0
 16 15  2  0  0  0  0
 17 19  2  0  0  0  0
 17 16  1  0  0  0  0
 18 32  1  0  0  0  0
 18 14  2  0  0  0  0
 19 18  1  0  0  0  0
 21  7  1  0  0  0  0
 23 13  1  0  0  0  0
 25 12  1  0  0  0  0
 28 10  1  0  0  0  0
 29 17  1  0  0  0  0
 31 19  1  0  0  0  0
M  RAD  2   1   2   6   2
M  END