
  Mrv0541 02201500303D          

 40 41  0  0  0  0            999 V2000
    0.0000    0.0000    0.0000 O   0  0  0  0  0  0  0  0  0  0  0  0
    1.4328    0.0000    0.0000 C   0  0  1  0  0  0  0  0  0  0  0  0
    1.8419    0.0000    1.4788 C   0  0  2  0  0  0  0  0  0  0  0  0
    3.1780    0.4779    1.4957 O   0  0  0  0  0  0  0  0  0  0  0  0
    1.7331   -1.4231    2.0548 C   0  0  1  0  0  0  0  0  0  0  0  0
    1.9124   -1.4507    3.4912 N   0  0  2  0  0  0  0  0  0  0  0  0
    1.9199   -2.8021    4.0524 C   0  0  2  0  0  0  0  0  0  0  0  0
    1.4759   -2.8175    5.5159 C   0  0  0  0  0  0  0  0  0  0  0  0
    3.3029   -3.4484    3.9541 C   0  0  0  0  0  0  0  0  0  0  0  0
   -0.5984    0.0502   -1.2444 C   0  0  0  0  0  0  0  0  0  0  0  0
   -2.0329    0.0805   -1.2066 C   0  0  0  0  0  0  0  0  0  0  0  0
   -2.7339    0.1249   -2.4379 C   0  0  0  0  0  0  0  0  0  0  0  0
   -2.0091    0.1399   -3.6618 C   0  0  0  0  0  0  0  0  0  0  0  0
   -4.1551    0.1544   -2.4170 C   0  0  0  0  0  0  0  0  0  0  0  0
   -4.8383    0.1411   -1.2252 C   0  0  0  0  0  0  0  0  0  0  0  0
   -2.7613    0.0683    0.0119 C   0  0  0  0  0  0  0  0  0  0  0  0
   -4.1352    0.0980    0.0016 C   0  0  0  0  0  0  0  0  0  0  0  0
    0.0853    0.0659   -2.4436 C   0  0  0  0  0  0  0  0  0  0  0  0
   -0.6379    0.1118   -3.6580 C   0  0  0  0  0  0  0  0  0  0  0  0
    3.5215    0.3246    2.3849 H   0  0  0  0  0  0  0  0  0  0  0  0
    1.4970   -3.8682    5.8919 H   0  0  0  0  0  0  0  0  0  0  0  0
    2.1597   -2.2003    6.1461 H   0  0  0  0  0  0  0  0  0  0  0  0
    0.4367   -2.4242    5.6236 H   0  0  0  0  0  0  0  0  0  0  0  0
    3.6427   -3.5073    2.8928 H   0  0  0  0  0  0  0  0  0  0  0  0
    4.0553   -2.8652    4.5361 H   0  0  0  0  0  0  0  0  0  0  0  0
    3.2504   -4.4831    4.3693 H   0  0  0  0  0  0  0  0  0  0  0  0
    1.1986   -3.4657    3.4773 H   0  0  0  0  0  0  0  0  0  0  0  0
    1.2070   -0.8960    3.9398 H   0  0  0  0  0  0  0  0  0  0  0  0
    0.7354   -1.8429    1.7304 H   0  0  0  0  0  0  0  0  0  0  0  0
    2.5407   -2.0568    1.5900 H   0  0  0  0  0  0  0  0  0  0  0  0
    1.1826    0.7134    2.0495 H   0  0  0  0  0  0  0  0  0  0  0  0
    1.8128   -0.9138   -0.5244 H   0  0  0  0  0  0  0  0  0  0  0  0
    1.8192    0.9239   -0.5040 H   0  0  0  0  0  0  0  0  0  0  0  0
   -2.5716    0.1752   -4.6062 H   0  0  0  0  0  0  0  0  0  0  0  0
   -5.9381    0.1643   -1.2103 H   0  0  0  0  0  0  0  0  0  0  0  0
   -4.6936    0.1886   -3.3758 H   0  0  0  0  0  0  0  0  0  0  0  0
   -4.7023    0.0894    0.9438 H   0  0  0  0  0  0  0  0  0  0  0  0
   -2.1993    0.0362    0.9582 H   0  0  0  0  0  0  0  0  0  0  0  0
   -0.0743    0.1245   -4.6033 H   0  0  0  0  0  0  0  0  0  0  0  0
    1.1828    0.0450   -2.4840 H   0  0  0  0  0  0  0  0  0  0  0  0
  1  2  1  0  0  0  0
  2  3  1  0  0  0  0
  3  4  1  0  0  0  0
  3 31  1  1  0  0  0
  3  5  1  0  0  0  0
  4 20  1  0  0  0  0
  5  6  1  0  0  0  0
  6 28  1  0  0  0  0
  6  7  1  0  0  0  0
  7  8  1  0  0  0  0
  8 23  1  0  0  0  0
  8 21  1  0  0  0  0
  8 22  1  0  0  0  0
  9  7  1  0  0  0  0
  9 26  1  0  0  0  0
  9 25  1  0  0  0  0
 10 11  1  0  0  0  0
 10  1  1  0  0  0  0
 11 16  2  0  0  0  0
 12 14  2  0  0  0  0
 12 11  1  0  0  0  0
 13 19  2  0  0  0  0
 13 12  1  0  0  0  0
 14 15  1  0  0  0  0
 15 35  1  0  0  0  0
 15 17  2  0  0  0  0
 16 38  1  0  0  0  0
 17 16  1  0  0  0  0
 17 37  1  0  0  0  0
 18 10  2  0  0  0  0
 19 18  1  0  0  0  0
 24  9  1  0  0  0  0
 27  7  1  0  0  0  0
 29  5  1  0  0  0  0
 30  5  1  0  0  0  0
 32  2  1  0  0  0  0
 33  2  1  0  0  0  0
 34 13  1  0  0  0  0
 36 14  1  0  0  0  0
 39 19  1  0  0  0  0
 40 18  1  0  0  0  0
M  END