
  Mrv0541 02201500303D          

 45 48  0  0  0  0            999 V2000
    0.0000    0.0000    0.0000 F   0  0  0  0  0  0  0  0  0  0  0  0
    1.3572    0.0000    0.0000 C   0  0  0  0  0  0  0  0  0  0  0  0
    2.1006    0.0000    1.2267 C   0  0  0  0  0  0  0  0  0  0  0  0
    1.5166   -0.1062    2.4985 N   0  0  0  0  0  0  0  0  0  0  0  0
    1.8778    0.9004    3.4833 C   0  0  1  0  0  0  0  0  0  0  0  0
    1.5365    0.4538    4.9217 C   0  0  2  0  0  0  0  0  0  0  0  0
    0.1730   -0.0167    5.0533 N   0  0  1  0  0  0  0  0  0  0  0  0
    0.1463   -0.5676    2.6205 C   0  0  1  0  0  0  0  0  0  0  0  0
   -0.1847   -1.0115    4.0625 C   0  0  1  0  0  0  0  0  0  0  0  0
    3.5062    0.0391    1.1297 C   0  0  0  0  0  0  0  0  0  0  0  0
    4.1671    0.0669   -0.1138 C   0  0  0  0  0  0  0  0  0  0  0  0
    5.5745    0.1076   -0.1943 N   0  0  0  0  0  0  0  0  0  0  0  0
    6.1909    0.0716   -1.4197 C   0  0  0  0  0  0  0  0  0  0  0  0
    6.3815    0.1671    0.9830 C   0  0  0  0  0  0  0  0  0  0  0  0
    7.2481   -0.8996    1.2970 C   0  0  0  0  0  0  0  0  0  0  0  0
    8.0553   -0.8373    2.4260 C   0  0  0  0  0  0  0  0  0  0  0  0
    8.0055    0.2938    3.2615 C   0  0  0  0  0  0  0  0  0  0  0  0
    8.7882    0.3551    4.3625 F   0  0  0  0  0  0  0  0  0  0  0  0
    6.3398    1.2992    1.8217 C   0  0  0  0  0  0  0  0  0  0  0  0
    7.1428    1.3623    2.9533 C   0  0  0  0  0  0  0  0  0  0  0  0
    2.0164    0.0013   -1.2306 C   0  0  0  0  0  0  0  0  0  0  0  0
    3.4114    0.0351   -1.3119 C   0  0  0  0  0  0  0  0  0  0  0  0
    4.0553    0.0314   -2.6366 C   0  0  0  0  0  0  0  0  0  0  0  0
    3.3823    0.0241   -3.6845 O   0  0  0  0  0  0  0  0  0  0  0  0
    5.5125    0.0336   -2.6175 C   0  0  0  0  0  0  0  0  0  0  0  0
    6.3343   -0.0067   -3.8355 C   0  0  0  0  0  0  0  0  0  0  0  0
    5.7998   -0.0015   -5.0824 O   0  0  0  0  0  0  0  0  0  0  0  0
    7.5730   -0.0477   -3.8369 O   0  0  0  0  0  0  0  0  0  0  0  0
    0.0180   -0.3754    5.9769 H   0  0  0  0  0  0  0  0  0  0  0  0
    1.6559    1.3493    5.5939 H   0  0  0  0  0  0  0  0  0  0  0  0
    2.2919   -0.3229    5.2403 H   0  0  0  0  0  0  0  0  0  0  0  0
    2.9839    1.0954    3.4366 H   0  0  0  0  0  0  0  0  0  0  0  0
    1.3412    1.8702    3.2678 H   0  0  0  0  0  0  0  0  0  0  0  0
    0.3162   -2.0055    4.2528 H   0  0  0  0  0  0  0  0  0  0  0  0
   -1.2984   -1.1674    4.1212 H   0  0  0  0  0  0  0  0  0  0  0  0
   -0.5823    0.2382    2.3137 H   0  0  0  0  0  0  0  0  0  0  0  0
    0.0024   -1.4533    1.9413 H   0  0  0  0  0  0  0  0  0  0  0  0
    7.3045    0.0800   -1.4079 H   0  0  0  0  0  0  0  0  0  0  0  0
    8.7346   -1.6676    2.6720 H   0  0  0  0  0  0  0  0  0  0  0  0
    7.2958   -1.7905    0.6491 H   0  0  0  0  0  0  0  0  0  0  0  0
    7.1146    2.2459    3.6087 H   0  0  0  0  0  0  0  0  0  0  0  0
    5.6701    2.1426    1.5865 H   0  0  0  0  0  0  0  0  0  0  0  0
    4.1084    0.0210    2.0541 H   0  0  0  0  0  0  0  0  0  0  0  0
    4.8301    0.0304   -5.0603 H   0  0  0  0  0  0  0  0  0  0  0  0
    1.4296   -0.0121   -2.1672 H   0  0  0  0  0  0  0  0  0  0  0  0
  1  2  1  0  0  0  0
  2  3  2  0  0  0  0
  3  4  1  0  0  0  0
  4  8  1  0  0  0  0
  4  5  1  0  0  0  0
  5  6  1  0  0  0  0
  6  7  1  0  0  0  0
  6 31  1  0  0  0  0
  6 30  1  0  0  0  0
  7 29  1  0  0  0  0
  8  9  1  0  0  0  0
  9 35  1  0  0  0  0
  9 34  1  0  0  0  0
  9  7  1  0  0  0  0
 10  3  1  0  0  0  0
 10 43  1  0  0  0  0
 11 10  2  0  0  0  0
 12 11  1  0  0  0  0
 12 14  1  0  0  0  0
 13 38  1  0  0  0  0
 13 12  1  0  0  0  0
 14 15  2  0  0  0  0
 14 19  1  0  0  0  0
 15 16  1  0  0  0  0
 16 39  1  0  0  0  0
 16 17  2  0  0  0  0
 17 18  1  0  0  0  0
 19 20  2  0  0  0  0
 20 17  1  0  0  0  0
 20 41  1  0  0  0  0
 21  2  1  0  0  0  0
 22 21  2  0  0  0  0
 22 11  1  0  0  0  0
 23 25  1  0  0  0  0
 23 22  1  0  0  0  0
 24 23  2  0  0  0  0
 25 13  2  0  0  0  0
 26 25  1  0  0  0  0
 27 44  1  0  0  0  0
 27 26  1  0  0  0  0
 28 26  2  0  0  0  0
 32  5  1  0  0  0  0
 33  5  1  0  0  0  0
 36  8  1  0  0  0  0
 37  8  1  0  0  0  0
 40 15  1  0  0  0  0
 42 19  1  0  0  0  0
 45 21  1  0  0  0  0
M  END