
  Mrv0541 02201500303D          

 24 24  0  0  0  0            999 V2000
    0.0000    0.0000    0.0000 S   0  0  1  0  0  0  0  0  0  0  0  0
    1.4029    0.0000    0.0000 O   0  0  0  0  0  0  0  0  0  0  0  0
   -0.6144    0.0000   -1.2777 O   0  0  0  0  0  0  0  0  0  0  0  0
   -0.5947   -1.3663    0.7225 N   0  0  0  0  0  0  0  0  0  0  0  0
   -0.2104   -1.8599    1.9958 C   0  0  0  0  0  0  0  0  0  0  0  0
    0.4870   -1.0534    2.7582 N   0  0  0  0  0  0  0  0  0  0  0  0
   -0.6791   -3.1616    2.3571 N   0  0  2  0  0  0  0  0  0  0  0  0
   -0.5968    1.2630    0.8883 C   0  0  0  0  0  0  0  0  0  0  0  0
   -1.8814    1.7750    0.6421 C   0  0  0  0  0  0  0  0  0  0  0  0
   -2.3894    2.8458    1.3513 C   0  0  0  0  0  0  0  0  0  0  0  0
   -1.6046    3.4703    2.3603 C   0  0  0  0  0  0  0  0  0  0  0  0
   -2.0747    4.5719    3.0379 N   0  0  0  0  0  0  0  0  0  0  0  0
    0.1752    1.8842    1.8830 C   0  0  0  0  0  0  0  0  0  0  0  0
   -0.3034    2.9596    2.6102 C   0  0  0  0  0  0  0  0  0  0  0  0
    0.7746   -1.4223    3.6361 H   0  0  0  0  0  0  0  0  0  0  0  0
   -0.1045   -3.6243    3.0262 H   0  0  0  0  0  0  0  0  0  0  0  0
   -0.9446   -3.7550    1.6035 H   0  0  0  0  0  0  0  0  0  0  0  0
   -1.3153   -1.8788    0.2666 H   0  0  0  0  0  0  0  0  0  0  0  0
   -1.5914    4.8663    3.8501 H   0  0  0  0  0  0  0  0  0  0  0  0
   -3.0391    4.7862    2.9774 H   0  0  0  0  0  0  0  0  0  0  0  0
   -3.3983    3.2212    1.1263 H   0  0  0  0  0  0  0  0  0  0  0  0
   -2.4941    1.3141   -0.1542 H   0  0  0  0  0  0  0  0  0  0  0  0
    0.3324    3.4207    3.3801 H   0  0  0  0  0  0  0  0  0  0  0  0
    1.1943    1.5023    2.0832 H   0  0  0  0  0  0  0  0  0  0  0  0
  1  2  2  0  0  0  0
  1  4  1  0  0  0  0
  1  8  1  0  0  0  0
  3  1  2  0  0  0  0
  4  5  1  0  0  0  0
  6 15  1  0  0  0  0
  7 16  1  0  0  0  0
  8 13  1  0  0  0  0
  9  8  2  0  0  0  0
  9 10  1  0  0  0  0
 10 11  2  0  0  0  0
 11 14  1  0  0  0  0
 11 12  1  0  0  0  0
 12 19  1  0  0  0  0
 13 24  1  0  0  0  0
 13 14  2  0  0  0  0
 14 23  1  0  0  0  0
 17  7  1  0  0  0  0
 18  4  1  0  0  0  0
 20 12  1  0  0  0  0
 21 10  1  0  0  0  0
 22  9  1  0  0  0  0
  5  7  1  0  0  0  0
  5  6  2  0  0  0  0
M  END