
  Mrv0541 02201500303D          

 27 28  0  0  0  0            999 V2000
    0.0000    0.0000    0.0000 S   0  0  1  0  0  0  0  0  0  0  0  0
    1.3983    0.0000    0.0000 O   0  0  0  0  0  0  0  0  0  0  0  0
   -0.6567    0.0000   -1.2345 O   0  0  0  0  0  0  0  0  0  0  0  0
   -0.5768   -1.2388    0.9601 N   0  0  0  0  0  0  0  0  0  0  0  0
   -0.4057   -2.5757    0.6750 C   0  0  0  0  0  0  0  0  0  0  0  0
   -1.0074   -3.8697    1.6756 S   0  0  0  0  0  0  0  0  0  0  0  0
   -0.3220   -4.9743    0.5351 C   0  0  0  0  0  0  0  0  0  0  0  0
   -0.4217   -6.4352    0.7005 C   0  0  0  0  0  0  0  0  0  0  0  0
    0.2583   -3.0505   -0.4296 N   0  0  0  0  0  0  0  0  0  0  0  0
    0.2939   -4.3476   -0.4895 N   0  0  0  0  0  0  0  0  0  0  0  0
   -0.5507    1.2843    0.9167 C   0  0  0  0  0  0  0  0  0  0  0  0
    0.2537    1.8604    1.9126 C   0  0  0  0  0  0  0  0  0  0  0  0
   -0.1674    2.9514    2.6484 C   0  0  0  0  0  0  0  0  0  0  0  0
   -1.4474    3.5242    2.4093 C   0  0  0  0  0  0  0  0  0  0  0  0
   -1.9057    4.5710    3.1722 N   0  0  0  0  0  0  0  0  0  0  0  0
   -1.8074    1.8607    0.6738 C   0  0  0  0  0  0  0  0  0  0  0  0
   -2.2593    2.9518    1.3911 C   0  0  0  0  0  0  0  0  0  0  0  0
   -0.9832   -6.6850    1.6339 H   0  0  0  0  0  0  0  0  0  0  0  0
   -0.9556   -6.8922   -0.1718 H   0  0  0  0  0  0  0  0  0  0  0  0
    0.5990   -6.8923    0.7634 H   0  0  0  0  0  0  0  0  0  0  0  0
   -1.0802   -1.0639    1.7982 H   0  0  0  0  0  0  0  0  0  0  0  0
   -1.2602    5.0598    3.7421 H   0  0  0  0  0  0  0  0  0  0  0  0
   -2.7118    5.0601    2.8697 H   0  0  0  0  0  0  0  0  0  0  0  0
    0.4921    3.3776    3.4189 H   0  0  0  0  0  0  0  0  0  0  0  0
    1.2590    1.4367    2.0958 H   0  0  0  0  0  0  0  0  0  0  0  0
   -3.2490    3.3783    1.1703 H   0  0  0  0  0  0  0  0  0  0  0  0
   -2.4412    1.4373   -0.1280 H   0  0  0  0  0  0  0  0  0  0  0  0
  1  2  2  0  0  0  0
  1 11  1  0  0  0  0
  1  4  1  0  0  0  0
  3  1  2  0  0  0  0
  4 21  1  0  0  0  0
  5  4  1  0  0  0  0
  5  6  1  0  0  0  0
  7  8  1  0  0  0  0
  7  6  1  0  0  0  0
  8 20  1  0  0  0  0
  8 18  1  0  0  0  0
  9  5  2  0  0  0  0
 10  9  1  0  0  0  0
 10  7  2  0  0  0  0
 11 12  1  0  0  0  0
 12 25  1  0  0  0  0
 12 13  2  0  0  0  0
 13 24  1  0  0  0  0
 14 13  1  0  0  0  0
 14 15  1  0  0  0  0
 15 22  1  0  0  0  0
 16 11  2  0  0  0  0
 16 17  1  0  0  0  0
 17 14  2  0  0  0  0
 19  8  1  0  0  0  0
 23 15  1  0  0  0  0
 26 17  1  0  0  0  0
 27 16  1  0  0  0  0
M  END