
  Mrv0541 02201500303D          

 28 29  0  0  0  0            999 V2000
    0.0000    0.0000    0.0000 S   0  0  1  0  0  0  0  0  0  0  0  0
    1.4112    0.0000    0.0000 O   0  0  0  0  0  0  0  0  0  0  0  0
   -0.6416    0.0000   -1.2540 O   0  0  0  0  0  0  0  0  0  0  0  0
   -0.4586   -1.3171    0.8781 N   0  0  0  0  0  0  0  0  0  0  0  0
   -1.7005   -1.9338    0.8625 C   0  0  0  0  0  0  0  0  0  0  0  0
   -2.1989   -2.7686    1.8235 N   0  0  0  0  0  0  0  0  0  0  0  0
   -3.3990   -3.1650    1.4532 O   0  0  0  0  0  0  0  0  0  0  0  0
   -2.7080   -1.7980   -0.2108 C   0  0  0  0  0  0  0  0  0  0  0  0
   -3.7538   -2.5878    0.2091 C   0  0  0  0  0  0  0  0  0  0  0  0
   -5.0648   -2.9441   -0.3295 C   0  0  0  0  0  0  0  0  0  0  0  0
   -0.5528    1.2772    0.9034 C   0  0  0  0  0  0  0  0  0  0  0  0
    0.2505    1.8635    1.8952 C   0  0  0  0  0  0  0  0  0  0  0  0
   -0.1801    2.9448    2.6388 C   0  0  0  0  0  0  0  0  0  0  0  0
   -1.4728    3.4964    2.4166 C   0  0  0  0  0  0  0  0  0  0  0  0
   -1.9355    4.5375    3.1798 N   0  0  0  0  0  0  0  0  0  0  0  0
   -1.8230    1.8325    0.6801 C   0  0  0  0  0  0  0  0  0  0  0  0
   -2.2858    2.9135    1.4047 C   0  0  0  0  0  0  0  0  0  0  0  0
   -5.3285   -2.2610   -1.1741 H   0  0  0  0  0  0  0  0  0  0  0  0
   -5.0496   -3.9989   -0.7064 H   0  0  0  0  0  0  0  0  0  0  0  0
   -5.8487   -2.8674    0.4656 H   0  0  0  0  0  0  0  0  0  0  0  0
   -2.5929   -1.2146   -1.1224 H   0  0  0  0  0  0  0  0  0  0  0  0
    0.1835   -1.7157    1.5307 H   0  0  0  0  0  0  0  0  0  0  0  0
   -1.3092    5.0137    3.7789 H   0  0  0  0  0  0  0  0  0  0  0  0
   -2.7743    4.9923    2.9200 H   0  0  0  0  0  0  0  0  0  0  0  0
    0.4792    3.3772    3.4058 H   0  0  0  0  0  0  0  0  0  0  0  0
    1.2633    1.4551    2.0700 H   0  0  0  0  0  0  0  0  0  0  0  0
   -3.2867    3.3207    1.1992 H   0  0  0  0  0  0  0  0  0  0  0  0
   -2.4619    1.3957   -0.1099 H   0  0  0  0  0  0  0  0  0  0  0  0
  1  2  2  0  0  0  0
  1  4  1  0  0  0  0
  1 11  1  0  0  0  0
  3  1  2  0  0  0  0
  4 22  1  0  0  0  0
  5  4  1  0  0  0  0
  5  6  2  0  0  0  0
  7  6  1  0  0  0  0
  8  9  2  0  0  0  0
  8  5  1  0  0  0  0
  9  7  1  0  0  0  0
 10  9  1  0  0  0  0
 10 20  1  0  0  0  0
 11 12  1  0  0  0  0
 12 26  1  0  0  0  0
 12 13  2  0  0  0  0
 13 25  1  0  0  0  0
 14 13  1  0  0  0  0
 14 15  1  0  0  0  0
 15 23  1  0  0  0  0
 16 11  2  0  0  0  0
 16 17  1  0  0  0  0
 17 14  2  0  0  0  0
 18 10  1  0  0  0  0
 19 10  1  0  0  0  0
 21  8  1  0  0  0  0
 24 15  1  0  0  0  0
 27 17  1  0  0  0  0
 28 16  1  0  0  0  0
M  END