
  Mrv0541 02201500303D          

 31 32  0  0  0  0            999 V2000
    0.0000    0.0000    0.0000 S   0  0  1  0  0  0  0  0  0  0  0  0
    1.4062    0.0000    0.0000 O   0  0  0  0  0  0  0  0  0  0  0  0
   -0.6415    0.0000   -1.2572 O   0  0  0  0  0  0  0  0  0  0  0  0
   -0.5848   -1.3288    0.7931 N   0  0  0  0  0  0  0  0  0  0  0  0
   -0.1427   -1.9163    1.9812 C   0  0  0  0  0  0  0  0  0  0  0  0
   -0.9593   -2.8453    2.5992 N   0  0  0  0  0  0  0  0  0  0  0  0
   -0.4915   -3.3794    3.7463 C   0  0  0  0  0  0  0  0  0  0  0  0
    1.1177   -1.5697    2.5413 C   0  0  0  0  0  0  0  0  0  0  0  0
    1.4728   -2.2050    3.7577 C   0  0  0  0  0  0  0  0  0  0  0  0
    2.6924   -1.8257    4.2670 O   0  0  0  0  0  0  0  0  0  0  0  0
    3.1322   -2.4603    5.4701 C   0  0  0  0  0  0  0  0  0  0  0  0
    0.6792   -3.1178    4.3842 N   0  0  0  0  0  0  0  0  0  0  0  0
   -0.5559    1.2679    0.9111 C   0  0  0  0  0  0  0  0  0  0  0  0
   -1.8325    1.8109    0.6898 C   0  0  0  0  0  0  0  0  0  0  0  0
   -2.3035    2.8888    1.4132 C   0  0  0  0  0  0  0  0  0  0  0  0
   -1.4932    3.4827    2.4211 C   0  0  0  0  0  0  0  0  0  0  0  0
   -1.9640    4.5211    3.1827 N   0  0  0  0  0  0  0  0  0  0  0  0
    0.2441    1.8647    1.8996 C   0  0  0  0  0  0  0  0  0  0  0  0
   -0.1948    2.9438    2.6414 C   0  0  0  0  0  0  0  0  0  0  0  0
   -1.1508   -4.1286    4.2356 H   0  0  0  0  0  0  0  0  0  0  0  0
    4.1332   -1.9905    5.6465 H   0  0  0  0  0  0  0  0  0  0  0  0
    2.4317   -2.2367    6.3095 H   0  0  0  0  0  0  0  0  0  0  0  0
    3.2287   -3.5619    5.3204 H   0  0  0  0  0  0  0  0  0  0  0  0
    1.8210   -0.8745    2.0618 H   0  0  0  0  0  0  0  0  0  0  0  0
   -1.4024   -1.7651    0.4126 H   0  0  0  0  0  0  0  0  0  0  0  0
   -2.8066    4.9685    2.9220 H   0  0  0  0  0  0  0  0  0  0  0  0
   -1.3396    5.0065    3.7767 H   0  0  0  0  0  0  0  0  0  0  0  0
   -3.3086    3.2863    1.2087 H   0  0  0  0  0  0  0  0  0  0  0  0
   -2.4685    1.3702   -0.1003 H   0  0  0  0  0  0  0  0  0  0  0  0
    0.4625    3.3839    3.4058 H   0  0  0  0  0  0  0  0  0  0  0  0
    1.2595    1.4622    2.0765 H   0  0  0  0  0  0  0  0  0  0  0  0
  1  2  2  0  0  0  0
  1  4  1  0  0  0  0
  1 13  1  0  0  0  0
  3  1  2  0  0  0  0
  4  5  1  0  0  0  0
  5  8  2  0  0  0  0
  5  6  1  0  0  0  0
  6  7  2  0  0  0  0
  7 20  1  0  0  0  0
  7 12  1  0  0  0  0
  8  9  1  0  0  0  0
  9 10  1  0  0  0  0
  9 12  2  0  0  0  0
 10 11  1  0  0  0  0
 11 21  1  0  0  0  0
 11 22  1  0  0  0  0
 13 18  1  0  0  0  0
 14 13  2  0  0  0  0
 14 15  1  0  0  0  0
 15 16  2  0  0  0  0
 16 19  1  0  0  0  0
 16 17  1  0  0  0  0
 17 27  1  0  0  0  0
 18 31  1  0  0  0  0
 18 19  2  0  0  0  0
 19 30  1  0  0  0  0
 23 11  1  0  0  0  0
 24  8  1  0  0  0  0
 25  4  1  0  0  0  0
 26 17  1  0  0  0  0
 28 15  1  0  0  0  0
 29 14  1  0  0  0  0
M  END