
  Mrv0541 02201500303D          

 31 32  0  0  0  0            999 V2000
    0.0000    0.0000    0.0000 S   0  0  2  0  0  0  0  0  0  0  0  0
    1.4118    0.0000    0.0000 O   0  0  0  0  0  0  0  0  0  0  0  0
   -0.6323    0.0000   -1.2503 O   0  0  0  0  0  0  0  0  0  0  0  0
   -0.4244    1.3557    0.8632 N   0  0  0  0  0  0  0  0  0  0  0  0
   -1.6684    1.9304    1.0375 C   0  0  0  0  0  0  0  0  0  0  0  0
   -2.7767    1.2466    0.4701 O   0  0  0  0  0  0  0  0  0  0  0  0
   -3.8885    2.0490    0.7904 C   0  0  0  0  0  0  0  0  0  0  0  0
   -5.1838    1.5786    0.3054 C   0  0  0  0  0  0  0  0  0  0  0  0
   -2.0349    3.0635    1.6720 N   0  0  0  0  0  0  0  0  0  0  0  0
   -3.4349    3.1427    1.5170 C   0  0  0  0  0  0  0  0  0  0  0  0
   -4.2356    4.2498    2.0693 C   0  0  0  0  0  0  0  0  0  0  0  0
   -0.5595   -1.2491    0.9279 C   0  0  0  0  0  0  0  0  0  0  0  0
   -1.8782   -1.7165    0.8011 C   0  0  0  0  0  0  0  0  0  0  0  0
   -2.3463   -2.7893    1.5344 C   0  0  0  0  0  0  0  0  0  0  0  0
   -1.4908   -3.4516    2.4582 C   0  0  0  0  0  0  0  0  0  0  0  0
   -1.9530   -4.4871    3.2298 N   0  0  0  0  0  0  0  0  0  0  0  0
    0.2827   -1.9089    1.8389 C   0  0  0  0  0  0  0  0  0  0  0  0
   -0.1530   -2.9835    2.5885 C   0  0  0  0  0  0  0  0  0  0  0  0
   -5.9358    2.4024    0.3854 H   0  0  0  0  0  0  0  0  0  0  0  0
   -5.1079    1.2542   -0.7632 H   0  0  0  0  0  0  0  0  0  0  0  0
   -5.5350    0.7069    0.9140 H   0  0  0  0  0  0  0  0  0  0  0  0
   -3.8495    5.2345    1.7038 H   0  0  0  0  0  0  0  0  0  0  0  0
   -5.3032    4.1419    1.7564 H   0  0  0  0  0  0  0  0  0  0  0  0
   -4.1847    4.2471    3.1873 H   0  0  0  0  0  0  0  0  0  0  0  0
    0.2981    1.8787    1.3177 H   0  0  0  0  0  0  0  0  0  0  0  0
   -1.3081   -5.0217    3.7558 H   0  0  0  0  0  0  0  0  0  0  0  0
   -2.8331   -4.8878    3.0219 H   0  0  0  0  0  0  0  0  0  0  0  0
   -3.3849   -3.1273    1.4047 H   0  0  0  0  0  0  0  0  0  0  0  0
   -2.5539   -1.2062    0.0879 H   0  0  0  0  0  0  0  0  0  0  0  0
    0.5372   -3.4759    3.2892 H   0  0  0  0  0  0  0  0  0  0  0  0
    1.3287   -1.5639    1.9424 H   0  0  0  0  0  0  0  0  0  0  0  0
  1  2  2  0  0  0  0
  1  4  1  0  0  0  0
  1 12  1  0  0  0  0
  3  1  2  0  0  0  0
  4  5  1  0  0  0  0
  4 25  1  0  0  0  0
  5  9  2  0  0  0  0
  6  7  1  0  0  0  0
  6  5  1  0  0  0  0
  7 10  2  0  0  0  0
  8 19  1  0  0  0  0
  8  7  1  0  0  0  0
  8 21  1  0  0  0  0
 10  9  1  0  0  0  0
 10 11  1  0  0  0  0
 11 24  1  0  0  0  0
 12 17  1  0  0  0  0
 13 12  2  0  0  0  0
 13 14  1  0  0  0  0
 14 15  2  0  0  0  0
 15 18  1  0  0  0  0
 15 16  1  0  0  0  0
 16 26  1  0  0  0  0
 17 31  1  0  0  0  0
 17 18  2  0  0  0  0
 18 30  1  0  0  0  0
 20  8  1  0  0  0  0
 22 11  1  0  0  0  0
 23 11  1  0  0  0  0
 27 16  1  0  0  0  0
 28 14  1  0  0  0  0
 29 13  1  0  0  0  0
M  END