
  Mrv0541 02201500303D          

 71 72  0  0  0  0            999 V2000
    0.0000    0.0000    0.0000 C   0  0  0  0  0  0  0  0  0  0  0  0
    1.4024    0.0000    0.0000 C   0  0  0  0  0  0  0  0  0  0  0  0
    2.0941    0.0000    1.2108 C   0  0  0  0  0  0  0  0  0  0  0  0
    1.4068    0.0010    2.4262 C   0  0  0  0  0  0  0  0  0  0  0  0
    0.0127   -0.0032    2.4366 C   0  0  0  0  0  0  0  0  0  0  0  0
   -0.6999   -0.0057    1.2059 C   0  0  0  0  0  0  0  0  0  0  0  0
    2.1485   -0.0177   -1.2886 C   0  0  1  0  0  0  0  0  0  0  0  0
    2.7727    1.3553   -1.5620 C   0  0  1  0  0  0  0  0  0  0  0  0
    3.4539    1.4325   -2.8486 N   0  0  1  0  0  0  0  0  0  0  0  0
    3.5330    2.7949   -3.3628 C   0  0  1  0  0  0  0  0  0  0  0  0
    2.2349    3.2994   -3.9930 C   0  0  1  0  0  0  0  0  0  0  0  0
    1.9397    2.6033   -5.3029 C   0  0  2  0  0  0  0  0  0  0  0  0
    0.6209    3.0768   -5.9469 C   0  0  1  0  0  0  0  0  0  0  0  0
    0.9668    5.5757   -6.6751 N   0  0  0  0  0  0  0  0  0  0  0  0
    0.3248    2.2294   -7.2122 C   0  0  1  0  0  0  0  0  0  0  0  0
   -0.5196    2.9172   -4.9687 C   0  0  0  0  0  0  0  0  0  0  0  0
   -1.3494    3.9809   -4.6160 C   0  0  0  0  0  0  0  0  0  0  0  0
   -2.3822    3.8099   -3.6906 C   0  0  0  0  0  0  0  0  0  0  0  0
   -2.6020    2.5624   -3.1091 C   0  0  0  0  0  0  0  0  0  0  0  0
   -1.7696    1.4703   -3.4722 C   0  0  0  0  0  0  0  0  0  0  0  0
   -0.7428    1.6541   -4.3946 C   0  0  0  0  0  0  0  0  0  0  0  0
   -2.0321    0.2775   -2.8236 O   0  0  0  0  0  0  0  0  0  0  0  0
   -1.4603   -0.8865   -3.4124 C   0  0  0  0  0  0  0  0  0  0  0  0
   -3.5819    2.2806   -2.1798 O   0  0  0  0  0  0  0  0  0  0  0  0
   -4.3829    3.3836   -1.7674 C   0  0  0  0  0  0  0  0  0  0  0  0
    0.7929    4.4746   -6.3443 C   0  0  0  0  0  0  0  0  0  0  0  0
   -0.9223    2.7207   -7.9188 C   0  0  0  0  0  0  0  0  0  0  0  0
    1.4916    2.2090   -8.1774 C   0  0  0  0  0  0  0  0  0  0  0  0
   -0.7708   -0.0071    3.5740 O   0  0  0  0  0  0  0  0  0  0  0  0
   -0.0682    0.0049    4.8105 C   0  0  0  0  0  0  0  0  0  0  0  0
    0.5554    0.9271    4.9040 H   0  0  0  0  0  0  0  0  0  0  0  0
    0.5671   -0.9081    4.9148 H   0  0  0  0  0  0  0  0  0  0  0  0
   -0.8876    0.0041    5.5734 H   0  0  0  0  0  0  0  0  0  0  0  0
   -2.0738   -0.0136    1.3216 O   0  0  0  0  0  0  0  0  0  0  0  0
   -2.8063   -0.0853    0.1017 C   0  0  0  0  0  0  0  0  0  0  0  0
   -3.8696   -0.1439    0.4457 H   0  0  0  0  0  0  0  0  0  0  0  0
   -2.5285   -0.9983   -0.4796 H   0  0  0  0  0  0  0  0  0  0  0  0
   -2.6414    0.8288   -0.5226 H   0  0  0  0  0  0  0  0  0  0  0  0
   -0.5454    0.0097   -0.9582 H   0  0  0  0  0  0  0  0  0  0  0  0
    1.9739    0.0027    3.3674 H   0  0  0  0  0  0  0  0  0  0  0  0
    3.1940   -0.0015    1.2132 H   0  0  0  0  0  0  0  0  0  0  0  0
    2.9498   -0.8026   -1.2395 H   0  0  0  0  0  0  0  0  0  0  0  0
    1.4613   -0.2939   -2.1318 H   0  0  0  0  0  0  0  0  0  0  0  0
    1.9457    2.1205   -1.5457 H   0  0  0  0  0  0  0  0  0  0  0  0
    3.4732    1.6009   -0.7094 H   0  0  0  0  0  0  0  0  0  0  0  0
    4.6007   -0.2876   -2.4915 H   0  0  0  0  0  0  0  0  0  0  0  0
    4.7370    0.7671   -2.8468 C   0  0  0  0  0  0  0  0  0  0  0  0
    5.4974    1.2683   -2.1862 H   0  0  0  0  0  0  0  0  0  0  0  0
    5.1377    0.7414   -3.8940 H   0  0  0  0  0  0  0  0  0  0  0  0
    3.8270    3.5213   -2.5482 H   0  0  0  0  0  0  0  0  0  0  0  0
    4.3397    2.8331   -4.1498 H   0  0  0  0  0  0  0  0  0  0  0  0
    1.3728    3.1625   -3.2886 H   0  0  0  0  0  0  0  0  0  0  0  0
    2.3510    4.4017   -4.1710 H   0  0  0  0  0  0  0  0  0  0  0  0
    1.8808    1.4955   -5.1428 H   0  0  0  0  0  0  0  0  0  0  0  0
    2.7811    2.7980   -6.0197 H   0  0  0  0  0  0  0  0  0  0  0  0
    1.8499    3.2447   -8.3916 H   0  0  0  0  0  0  0  0  0  0  0  0
    1.1769    1.7392   -9.1413 H   0  0  0  0  0  0  0  0  0  0  0  0
    2.3410    1.6147   -7.7625 H   0  0  0  0  0  0  0  0  0  0  0  0
    0.1408    1.1756   -6.8564 H   0  0  0  0  0  0  0  0  0  0  0  0
   -1.7803    2.7791   -7.2059 H   0  0  0  0  0  0  0  0  0  0  0  0
   -0.7541    3.7343   -8.3567 H   0  0  0  0  0  0  0  0  0  0  0  0
   -1.1928    2.0199   -8.7452 H   0  0  0  0  0  0  0  0  0  0  0  0
   -0.0930    0.8086   -4.6662 H   0  0  0  0  0  0  0  0  0  0  0  0
   -0.3505   -0.8854   -3.2755 H   0  0  0  0  0  0  0  0  0  0  0  0
   -1.9254   -1.7238   -2.8318 H   0  0  0  0  0  0  0  0  0  0  0  0
   -3.7517    4.1806   -1.3048 H   0  0  0  0  0  0  0  0  0  0  0  0
   -5.0699    2.9323   -1.0071 H   0  0  0  0  0  0  0  0  0  0  0  0
   -4.9631    3.7927   -2.6298 H   0  0  0  0  0  0  0  0  0  0  0  0
   -3.0166    4.6691   -3.4292 H   0  0  0  0  0  0  0  0  0  0  0  0
   -1.2080    4.9793   -5.0576 H   0  0  0  0  0  0  0  0  0  0  0  0
   -1.7222   -0.9598   -4.4950 H   0  0  0  0  0  0  0  0  0  0  0  0
  1  6  1  0  0  0  0
  2  1  2  0  0  0  0
  2  3  1  0  0  0  0
  3 41  1  0  0  0  0
  3  4  2  0  0  0  0
  4  5  1  0  0  0  0
  4 40  1  0  0  0  0
  5 29  1  0  0  0  0
  6 34  1  0  0  0  0
  6  5  2  0  0  0  0
  7 42  1  0  0  0  0
  7  2  1  0  0  0  0
  8 44  1  0  0  0  0
  8  7  1  0  0  0  0
  8 45  1  0  0  0  0
  9 47  1  0  0  0  0
  9  8  1  0  0  0  0
 10  9  1  0  0  0  0
 10 50  1  0  0  0  0
 11 10  1  0  0  0  0
 11 52  1  0  0  0  0
 12 54  1  0  0  0  0
 12 11  1  0  0  0  0
 13 12  1  1  0  0  0
 13 16  1  0  0  0  0
 14 26  3  0  0  0  0
 15 59  1  0  0  0  0
 15 13  1  0  0  0  0
 16 17  2  0  0  0  0
 16 21  1  0  0  0  0
 17 18  1  0  0  0  0
 18 69  1  0  0  0  0
 18 19  2  0  0  0  0
 19 24  1  0  0  0  0
 20 19  1  0  0  0  0
 20 22  1  0  0  0  0
 21 20  2  0  0  0  0
 23 64  1  0  0  0  0
 23 65  1  0  0  0  0
 23 22  1  0  0  0  0
 24 25  1  0  0  0  0
 25 66  1  0  0  0  0
 25 67  1  0  0  0  0
 26 13  1  0  0  0  0
 27 15  1  0  0  0  0
 27 60  1  0  0  0  0
 28 58  1  0  0  0  0
 28 15  1  0  0  0  0
 29 30  1  0  0  0  0
 30 31  1  0  0  0  0
 30 32  1  0  0  0  0
 30 33  1  0  0  0  0
 35 36  1  0  0  0  0
 35 34  1  0  0  0  0
 37 35  1  0  0  0  0
 38 35  1  0  0  0  0
 39  1  1  0  0  0  0
 43  7  1  0  0  0  0
 47 46  1  0  0  0  0
 47 48  1  0  0  0  0
 49 47  1  0  0  0  0
 51 10  1  0  0  0  0
 53 11  1  0  0  0  0
 55 12  1  0  0  0  0
 56 28  1  0  0  0  0
 57 28  1  0  0  0  0
 61 27  1  0  0  0  0
 62 27  1  0  0  0  0
 63 21  1  0  0  0  0
 68 25  1  0  0  0  0
 70 17  1  0  0  0  0
 71 23  1  0  0  0  0
M  END