
  Mrv0541 02201500303D          

 42 45  0  0  0  0            999 V2000
    0.0000    0.0000    0.0000 F   0  0  0  0  0  0  0  0  0  0  0  0
    1.3573    0.0000    0.0000 C   0  0  0  0  0  0  0  0  0  0  0  0
    2.1001    0.0000    1.2262 C   0  0  0  0  0  0  0  0  0  0  0  0
    1.5142    0.0889    2.5009 N   0  0  0  0  0  0  0  0  0  0  0  0
    1.8604   -0.9476    3.4589 C   0  0  1  0  0  0  0  0  0  0  0  0
    1.4834   -0.5493    4.9057 C   0  0  2  0  0  0  0  0  0  0  0  0
    0.1382   -0.0407    5.0711 N   0  0  1  0  0  0  0  0  0  0  0  0
    0.1554    0.5809    2.6246 C   0  0  1  0  0  0  0  0  0  0  0  0
   -0.1805    0.9702    4.0840 C   0  0  1  0  0  0  0  0  0  0  0  0
    3.5054   -0.0258    1.1320 C   0  0  0  0  0  0  0  0  0  0  0  0
    2.0172   -0.0040   -1.2306 C   0  0  0  0  0  0  0  0  0  0  0  0
    3.4121   -0.0299   -1.3101 C   0  0  0  0  0  0  0  0  0  0  0  0
    4.1681   -0.0415   -0.1118 C   0  0  0  0  0  0  0  0  0  0  0  0
    5.5752   -0.0601   -0.1868 N   0  0  0  0  0  0  0  0  0  0  0  0
    6.3584    0.0013    1.0138 C   0  0  1  0  0  0  0  0  0  0  0  0
    6.5058   -1.1864    1.9486 C   0  0  1  0  0  0  0  0  0  0  0  0
    7.6845   -0.7213    1.1509 C   0  0  1  0  0  0  0  0  0  0  0  0
    6.1904   -0.0607   -1.4093 C   0  0  0  0  0  0  0  0  0  0  0  0
    4.0589   -0.0461   -2.6339 C   0  0  0  0  0  0  0  0  0  0  0  0
    3.3868   -0.0451   -3.6828 O   0  0  0  0  0  0  0  0  0  0  0  0
    5.5147   -0.0611   -2.6110 C   0  0  0  0  0  0  0  0  0  0  0  0
    6.3400   -0.0770   -3.8261 C   0  0  0  0  0  0  0  0  0  0  0  0
    5.8093   -0.0553   -5.0747 O   0  0  0  0  0  0  0  0  0  0  0  0
    7.5793   -0.1118   -3.8251 O   0  0  0  0  0  0  0  0  0  0  0  0
   -0.5238   -0.7947    5.0172 H   0  0  0  0  0  0  0  0  0  0  0  0
    2.1929    0.2508    5.2588 H   0  0  0  0  0  0  0  0  0  0  0  0
    1.6190   -1.4550    5.5581 H   0  0  0  0  0  0  0  0  0  0  0  0
    1.3388   -1.9148    3.1983 H   0  0  0  0  0  0  0  0  0  0  0  0
    2.9681   -1.1347    3.4229 H   0  0  0  0  0  0  0  0  0  0  0  0
   -1.2799    1.2005    4.1331 H   0  0  0  0  0  0  0  0  0  0  0  0
    0.3888    1.9028    4.3558 H   0  0  0  0  0  0  0  0  0  0  0  0
    0.0443    1.4922    1.9747 H   0  0  0  0  0  0  0  0  0  0  0  0
   -0.5909   -0.1912    2.2751 H   0  0  0  0  0  0  0  0  0  0  0  0
    4.1049   -0.0192    2.0582 H   0  0  0  0  0  0  0  0  0  0  0  0
    6.4680   -0.9880    3.0349 H   0  0  0  0  0  0  0  0  0  0  0  0
    6.0342   -2.1510    1.6877 H   0  0  0  0  0  0  0  0  0  0  0  0
    8.0547   -1.3605    0.3281 H   0  0  0  0  0  0  0  0  0  0  0  0
    8.5076   -0.1810    1.6534 H   0  0  0  0  0  0  0  0  0  0  0  0
    6.2699    1.0114    1.4804 H   0  0  0  0  0  0  0  0  0  0  0  0
    7.3041   -0.0593   -1.3997 H   0  0  0  0  0  0  0  0  0  0  0  0
    4.8394   -0.0292   -5.0543 H   0  0  0  0  0  0  0  0  0  0  0  0
    1.4311    0.0006   -2.1677 H   0  0  0  0  0  0  0  0  0  0  0  0
  2  1  1  0  0  0  0
  2  3  2  0  0  0  0
  3  4  1  0  0  0  0
  4  8  1  0  0  0  0
  4  5  1  0  0  0  0
  5  6  1  0  0  0  0
  6  7  1  0  0  0  0
  6 26  1  0  0  0  0
  6 27  1  0  0  0  0
  8  9  1  0  0  0  0
  9 30  1  0  0  0  0
  9 31  1  0  0  0  0
  9  7  1  0  0  0  0
 10  3  1  0  0  0  0
 10 34  1  0  0  0  0
 11  2  1  0  0  0  0
 12 11  2  0  0  0  0
 12 13  1  0  0  0  0
 13 10  2  0  0  0  0
 14 13  1  0  0  0  0
 14 15  1  0  0  0  0
 15 17  1  0  0  0  0
 15 39  1  0  0  0  0
 15 16  1  0  0  0  0
 16 35  1  0  0  0  0
 17 38  1  0  0  0  0
 17 16  1  0  0  0  0
 18 40  1  0  0  0  0
 18 14  1  0  0  0  0
 19 21  1  0  0  0  0
 19 12  1  0  0  0  0
 20 19  2  0  0  0  0
 21 18  2  0  0  0  0
 22 24  2  0  0  0  0
 22 21  1  0  0  0  0
 23 41  1  0  0  0  0
 23 22  1  0  0  0  0
 25  7  1  0  0  0  0
 28  5  1  0  0  0  0
 29  5  1  0  0  0  0
 32  8  1  0  0  0  0
 33  8  1  0  0  0  0
 36 16  1  0  0  0  0
 37 17  1  0  0  0  0
 42 11  1  0  0  0  0
M  END