
  Mrv0541 02201500303D          

 44 46  0  0  0  0            999 V2000
    0.0000    0.0000    0.0000 C   0  0  0  0  0  0  0  0  0  0  0  0
    1.4182    0.0000    0.0000 C   0  0  0  0  0  0  0  0  0  0  0  0
    2.2089    0.0000    1.2543 C   0  0  0  0  0  0  0  0  0  0  0  0
    1.4063   -0.1363    2.4664 C   0  0  0  0  0  0  0  0  0  0  0  0
    0.0375   -0.0662    2.3995 C   0  0  0  0  0  0  0  0  0  0  0  0
   -0.6755    0.0792    1.2340 N   0  0  0  0  0  0  0  0  0  0  0  0
    2.1226   -0.0150   -1.2031 C   0  0  0  0  0  0  0  0  0  0  0  0
    1.4629   -0.0368   -2.4325 C   0  0  0  0  0  0  0  0  0  0  0  0
    0.0384   -0.1093   -2.4976 C   0  0  0  0  0  0  0  0  0  0  0  0
   -0.6703   -0.1108   -1.2581 C   0  0  0  0  0  0  0  0  0  0  0  0
    2.0636   -0.3325    3.7536 C   0  0  0  0  0  0  0  0  0  0  0  0
    3.4406    0.1168    1.2396 O   0  0  0  0  0  0  0  0  0  0  0  0
    2.2108    0.0007   -3.5637 F   0  0  0  0  0  0  0  0  0  0  0  0
   -2.0222   -0.2388   -1.2884 F   0  0  0  0  0  0  0  0  0  0  0  0
   -2.1034    0.3335    1.3613 C   0  0  1  0  0  0  0  0  0  0  0  0
   -0.6768   -0.2569   -3.6996 N   0  0  2  0  0  0  0  0  0  0  0  0
   -0.0176   -0.8691   -4.8383 C   0  0  2  0  0  0  0  0  0  0  0  0
   -1.0433   -1.3212   -5.9015 C   0  0  1  0  0  0  0  0  0  0  0  0
   -1.9475   -0.2570   -6.2853 N   0  0  2  0  0  0  0  0  0  0  0  0
   -2.6126    0.3605   -5.1408 C   0  0  1  0  0  0  0  0  0  0  0  0
   -1.5864    0.8162   -4.0661 C   0  0  1  0  0  0  0  0  0  0  0  0
   -3.4383    1.5776   -5.5479 C   0  0  0  0  0  0  0  0  0  0  0  0
   -2.9618   -0.9137    1.4967 C   0  0  0  0  0  0  0  0  0  0  0  0
   -4.0247   -0.5976    1.6309 H   0  0  0  0  0  0  0  0  0  0  0  0
   -2.8922   -1.5497    0.5810 H   0  0  0  0  0  0  0  0  0  0  0  0
   -2.2521    0.9771    2.2784 H   0  0  0  0  0  0  0  0  0  0  0  0
   -2.6541   -1.5227    2.3802 H   0  0  0  0  0  0  0  0  0  0  0  0
   -2.4440    0.9408    0.4760 H   0  0  0  0  0  0  0  0  0  0  0  0
   -0.5698   -0.1113    3.3306 H   0  0  0  0  0  0  0  0  0  0  0  0
    1.2321   -0.1654    4.8374 O   0  0  0  0  0  0  0  0  0  0  0  0
    1.7411   -0.3091    5.6510 H   0  0  0  0  0  0  0  0  0  0  0  0
    3.2275   -0.6356    4.0217 O   0  0  0  0  0  0  0  0  0  0  0  0
    3.2280    0.0073   -1.1739 H   0  0  0  0  0  0  0  0  0  0  0  0
    0.5535   -1.7707   -4.4842 H   0  0  0  0  0  0  0  0  0  0  0  0
    0.7096   -0.1555   -5.3249 H   0  0  0  0  0  0  0  0  0  0  0  0
   -0.4678   -1.6275   -6.8196 H   0  0  0  0  0  0  0  0  0  0  0  0
   -1.5874   -2.2304   -5.5113 H   0  0  0  0  0  0  0  0  0  0  0  0
   -2.6316   -0.5942   -6.9358 H   0  0  0  0  0  0  0  0  0  0  0  0
   -4.2425    1.2839   -6.2643 H   0  0  0  0  0  0  0  0  0  0  0  0
   -2.7987    2.3544   -6.0311 H   0  0  0  0  0  0  0  0  0  0  0  0
   -3.9140    2.0175   -4.6389 H   0  0  0  0  0  0  0  0  0  0  0  0
   -3.3124   -0.3798   -4.6397 H   0  0  0  0  0  0  0  0  0  0  0  0
   -2.1615    1.1389   -3.1551 H   0  0  0  0  0  0  0  0  0  0  0  0
   -1.0160    1.7054   -4.4626 H   0  0  0  0  0  0  0  0  0  0  0  0
  1  2  1  0  0  0  0
  1  6  1  0  0  0  0
  2  3  1  0  0  0  0
  3  4  1  0  0  0  0
  4 11  1  0  0  0  0
  5  4  2  0  0  0  0
  5 29  1  0  0  0  0
  6 15  1  0  0  0  0
  6  5  1  0  0  0  0
  7 33  1  0  0  0  0
  7  2  2  0  0  0  0
  8  7  1  0  0  0  0
  9  8  2  0  0  0  0
  9 10  1  0  0  0  0
 10  1  2  0  0  0  0
 11 32  2  0  0  0  0
 11 30  1  0  0  0  0
 12  3  2  0  0  0  0
 13  8  1  0  0  0  0
 14 10  1  0  0  0  0
 15 23  1  0  0  0  0
 15 26  1  0  0  0  0
 16  9  1  0  0  0  0
 17 34  1  0  0  0  0
 17 16  1  0  0  0  0
 18 37  1  0  0  0  0
 18 17  1  0  0  0  0
 19 18  1  0  0  0  0
 19 20  1  0  0  0  0
 20 42  1  1  0  0  0
 20 21  1  0  0  0  0
 21 16  1  0  0  0  0
 21 43  1  0  0  0  0
 22 20  1  0  0  0  0
 22 41  1  0  0  0  0
 23 24  1  0  0  0  0
 23 27  1  0  0  0  0
 25 23  1  0  0  0  0
 28 15  1  0  0  0  0
 30 31  1  0  0  0  0
 35 17  1  0  0  0  0
 36 18  1  0  0  0  0
 38 19  1  0  0  0  0
 39 22  1  0  0  0  0
 40 22  1  0  0  0  0
 44 21  1  0  0  0  0
M  END