
  Mrv0541 02201500303D          

 30 32  0  0  0  0            999 V2000
    0.0000    0.0000    0.0000 O   0  0  0  0  0  0  0  0  0  0  0  0
    1.3871    0.0000    0.0000 C   0  0  0  0  0  0  0  0  0  0  0  0
    2.2312    0.0000    1.0826 C   0  0  0  0  0  0  0  0  0  0  0  0
    3.6330   -0.0017    0.8002 C   0  0  0  0  0  0  0  0  0  0  0  0
    4.5653   -0.0246    1.8550 N   0  0  0  0  0  0  0  0  0  0  0  0
    4.1315   -0.0588    3.2416 C   0  0  1  0  0  0  0  0  0  0  0  0
    3.6934    1.2817    3.8096 C   0  0  0  0  0  0  0  0  0  0  0  0
    5.9055    0.0603    1.5771 C   0  0  0  0  0  0  0  0  0  0  0  0
    6.4223    0.0946    0.3050 C   0  0  0  0  0  0  0  0  0  0  0  0
    7.8655    0.1914    0.1148 C   0  0  0  0  0  0  0  0  0  0  0  0
    8.5937    0.0401    1.2736 O   0  0  0  0  0  0  0  0  0  0  0  0
    8.5312    0.3955   -0.9018 O   0  0  0  0  0  0  0  0  0  0  0  0
    4.0970    0.0128   -0.5392 C   0  0  0  0  0  0  0  0  0  0  0  0
    5.5420    0.0312   -0.8609 C   0  0  0  0  0  0  0  0  0  0  0  0
    5.9428   -0.0119   -2.0316 O   0  0  0  0  0  0  0  0  0  0  0  0
    1.8574    0.0054   -1.3426 C   0  0  0  0  0  0  0  0  0  0  0  0
    3.1975    0.0140   -1.6334 C   0  0  0  0  0  0  0  0  0  0  0  0
   -0.4202    0.0021   -1.3879 C   0  0  2  0  0  0  0  0  0  0  0  0
    0.7680    0.0061   -2.2100 O   0  0  0  0  0  0  0  0  0  0  0  0
    4.5328    2.0177    3.7980 H   0  0  0  0  0  0  0  0  0  0  0  0
    2.8408    1.7107    3.2298 H   0  0  0  0  0  0  0  0  0  0  0  0
    3.3666    1.1287    4.8667 H   0  0  0  0  0  0  0  0  0  0  0  0
    3.2876   -0.8024    3.3281 H   0  0  0  0  0  0  0  0  0  0  0  0
    4.9867   -0.4543    3.8638 H   0  0  0  0  0  0  0  0  0  0  0  0
    9.5383    0.1140    1.0647 H   0  0  0  0  0  0  0  0  0  0  0  0
    6.5838    0.0885    2.4576 H   0  0  0  0  0  0  0  0  0  0  0  0
    1.8313    0.0095    2.1043 H   0  0  0  0  0  0  0  0  0  0  0  0
    3.5905    0.0212   -2.6628 H   0  0  0  0  0  0  0  0  0  0  0  0
   -0.9945    0.9412   -1.5814 H   0  0  0  0  0  0  0  0  0  0  0  0
   -0.9909   -0.9385   -1.5855 H   0  0  0  0  0  0  0  0  0  0  0  0
  1  2  1  0  0  0  0
  2  3  2  0  0  0  0
  3 27  1  0  0  0  0
  4  3  1  0  0  0  0
  4  5  1  0  0  0  0
  5  6  1  0  0  0  0
  6 23  1  0  0  0  0
  6  7  1  0  0  0  0
  6 24  1  0  0  0  0
  7 22  1  0  0  0  0
  8  5  1  0  0  0  0
  8 26  1  0  0  0  0
  9  8  2  0  0  0  0
 10  9  1  0  0  0  0
 10 11  1  0  0  0  0
 12 10  2  0  0  0  0
 13  4  2  0  0  0  0
 14 13  1  0  0  0  0
 14  9  1  0  0  0  0
 15 14  2  0  0  0  0
 16  2  1  0  0  0  0
 17 16  2  0  0  0  0
 17 13  1  0  0  0  0
 18  1  1  0  0  0  0
 19 18  1  0  0  0  0
 19 16  1  0  0  0  0
 20  7  1  0  0  0  0
 21  7  1  0  0  0  0
 25 11  1  0  0  0  0
 28 17  1  0  0  0  0
 29 18  1  0  0  0  0
 30 18  1  0  0  0  0
M  END