
  Mrv0541 02201500303D          

 16 16  0  0  0  0            999 V2000
    0.0000    0.0000    0.0000 O   0  0  0  0  0  0  0  0  0  0  0  0
    1.3659    0.0000    0.0000 C   0  0  0  0  0  0  0  0  0  0  0  0
    2.1956    0.0000    1.1354 C   0  0  0  0  0  0  0  0  0  0  0  0
    3.5948    0.0151    0.9508 C   0  0  0  0  0  0  0  0  0  0  0  0
    4.1482    0.0205   -0.3187 C   0  0  0  0  0  0  0  0  0  0  0  0
    1.7369   -0.0138    2.5239 C   0  0  0  0  0  0  0  0  0  0  0  0
    0.3991   -0.2173    2.7299 O   0  0  0  0  0  0  0  0  0  0  0  0
    2.4111    0.1251    3.5515 O   0  0  0  0  0  0  0  0  0  0  0  0
    1.9371    0.0058   -1.2950 C   0  0  0  0  0  0  0  0  0  0  0  0
    3.3131    0.0139   -1.4438 C   0  0  0  0  0  0  0  0  0  0  0  0
    5.2403    0.0306   -0.4454 H   0  0  0  0  0  0  0  0  0  0  0  0
    4.2409    0.0232    1.8457 H   0  0  0  0  0  0  0  0  0  0  0  0
    0.2118   -0.2093    3.6830 H   0  0  0  0  0  0  0  0  0  0  0  0
    3.7545    0.0167   -2.4526 H   0  0  0  0  0  0  0  0  0  0  0  0
    1.2646    0.0036   -2.1652 H   0  0  0  0  0  0  0  0  0  0  0  0
   -0.3432    0.0250    0.9050 H   0  0  0  0  0  0  0  0  0  0  0  0
  1  2  1  0  0  0  0
  1 16  1  0  0  0  0
  2  3  2  0  0  0  0
  3  6  1  0  0  0  0
  4  3  1  0  0  0  0
  4 12  1  0  0  0  0
  5  4  2  0  0  0  0
  6  7  1  0  0  0  0
  6  8  2  0  0  0  0
  7 13  1  0  0  0  0
  9  2  1  0  0  0  0
 10  9  2  0  0  0  0
 10  5  1  0  0  0  0
 11  5  1  0  0  0  0
 14 10  1  0  0  0  0
 15  9  1  0  0  0  0
M  END