
  Mrv0541 02201500303D          

 30 31  0  0  0  0            999 V2000
    0.0000    0.0000    0.0000 S   0  0  1  0  0  0  0  0  0  0  0  0
    1.4148    0.0000    0.0000 O   0  0  0  0  0  0  0  0  0  0  0  0
   -0.6121    0.0000   -1.2610 O   0  0  0  0  0  0  0  0  0  0  0  0
   -0.4033   -1.3540    0.8716 N   0  0  0  0  0  0  0  0  0  0  0  0
   -1.6908   -1.8450    1.1246 C   0  0  0  0  0  0  0  0  0  0  0  0
   -2.7471   -1.0747    0.6680 N   0  0  0  0  0  0  0  0  0  0  0  0
   -3.9919   -1.5585    0.8889 C   0  0  0  0  0  0  0  0  0  0  0  0
   -4.2091   -2.7794    1.5637 C   0  0  0  0  0  0  0  0  0  0  0  0
   -5.1663   -0.7765    0.3950 C   0  0  0  0  0  0  0  0  0  0  0  0
   -1.8173   -3.0519    1.8045 N   0  0  0  0  0  0  0  0  0  0  0  0
   -3.0726   -3.4802    2.0020 C   0  0  0  0  0  0  0  0  0  0  0  0
   -0.5500    1.2618    0.9210 C   0  0  0  0  0  0  0  0  0  0  0  0
    0.2024    1.7459    2.0040 C   0  0  0  0  0  0  0  0  0  0  0  0
   -0.2174    2.8204    2.7631 C   0  0  0  0  0  0  0  0  0  0  0  0
   -1.4407    3.4786    2.4537 C   0  0  0  0  0  0  0  0  0  0  0  0
   -1.8498    4.5761    3.1694 N   0  0  0  0  0  0  0  0  0  0  0  0
   -1.7557    1.9147    0.6189 C   0  0  0  0  0  0  0  0  0  0  0  0
   -2.2043    2.9946    1.3570 C   0  0  0  0  0  0  0  0  0  0  0  0
   -5.2188   -3.1652    1.7370 H   0  0  0  0  0  0  0  0  0  0  0  0
   -5.1322    0.2739    0.7766 H   0  0  0  0  0  0  0  0  0  0  0  0
   -5.1604   -0.7442   -0.7237 H   0  0  0  0  0  0  0  0  0  0  0  0
   -6.1163   -1.2537    0.7372 H   0  0  0  0  0  0  0  0  0  0  0  0
   -3.1663   -4.4415    2.5412 H   0  0  0  0  0  0  0  0  0  0  0  0
    0.3292   -1.9209    1.2471 H   0  0  0  0  0  0  0  0  0  0  0  0
   -1.3801    4.8075    4.0081 H   0  0  0  0  0  0  0  0  0  0  0  0
   -2.7625    4.9297    3.0301 H   0  0  0  0  0  0  0  0  0  0  0  0
    0.4017    3.1730    3.6009 H   0  0  0  0  0  0  0  0  0  0  0  0
    1.1660    1.2590    2.2423 H   0  0  0  0  0  0  0  0  0  0  0  0
   -3.1513    3.4835    1.0860 H   0  0  0  0  0  0  0  0  0  0  0  0
   -2.3551    1.5537   -0.2385 H   0  0  0  0  0  0  0  0  0  0  0  0
  1  2  2  0  0  0  0
  1  4  1  0  0  0  0
  1 12  1  0  0  0  0
  3  1  2  0  0  0  0
  4  5  1  0  0  0  0
  4 24  1  0  0  0  0
  5 10  2  0  0  0  0
  6  7  2  0  0  0  0
  6  5  1  0  0  0  0
  7  8  1  0  0  0  0
  8 19  1  0  0  0  0
  8 11  2  0  0  0  0
  9 22  1  0  0  0  0
  9 20  1  0  0  0  0
  9  7  1  0  0  0  0
 10 11  1  0  0  0  0
 11 23  1  0  0  0  0
 12 13  1  0  0  0  0
 13 28  1  0  0  0  0
 13 14  2  0  0  0  0
 14 27  1  0  0  0  0
 15 14  1  0  0  0  0
 15 16  1  0  0  0  0
 16 25  1  0  0  0  0
 17 12  2  0  0  0  0
 17 18  1  0  0  0  0
 18 15  2  0  0  0  0
 21  9  1  0  0  0  0
 26 16  1  0  0  0  0
 29 18  1  0  0  0  0
 30 17  1  0  0  0  0
M  END