
  Mrv0541 02201500303D          

 33 34  0  0  0  0            999 V2000
    0.0000    0.0000    0.0000 S   0  0  1  0  0  0  0  0  0  0  0  0
    1.4019    0.0000    0.0000 O   0  0  0  0  0  0  0  0  0  0  0  0
   -0.6157    0.0000   -1.2742 O   0  0  0  0  0  0  0  0  0  0  0  0
   -0.6118   -1.3471    0.7463 N   0  0  0  0  0  0  0  0  0  0  0  0
   -0.2850   -1.8284    2.0230 C   0  0  0  0  0  0  0  0  0  0  0  0
   -0.8460   -3.0278    2.4327 N   0  0  0  0  0  0  0  0  0  0  0  0
   -0.4916   -3.4627    3.6633 C   0  0  0  0  0  0  0  0  0  0  0  0
    0.3975   -2.7400    4.4871 C   0  0  0  0  0  0  0  0  0  0  0  0
   -1.0560   -4.7555    4.1595 C   0  0  0  0  0  0  0  0  0  0  0  0
    0.5828   -1.0497    2.7703 N   0  0  0  0  0  0  0  0  0  0  0  0
    0.9148   -1.5246    3.9925 C   0  0  0  0  0  0  0  0  0  0  0  0
    1.8557   -0.7322    4.8425 C   0  0  0  0  0  0  0  0  0  0  0  0
   -0.5856    1.2706    0.8903 C   0  0  0  0  0  0  0  0  0  0  0  0
    0.2167    1.9294    1.8349 C   0  0  0  0  0  0  0  0  0  0  0  0
   -0.2471    3.0184    2.5510 C   0  0  0  0  0  0  0  0  0  0  0  0
   -1.5698    3.4956    2.3507 C   0  0  0  0  0  0  0  0  0  0  0  0
   -2.0691    4.5351    3.1034 N   0  0  0  0  0  0  0  0  0  0  0  0
   -1.8886    1.7536    0.6871 C   0  0  0  0  0  0  0  0  0  0  0  0
   -2.3829    2.8370    1.3875 C   0  0  0  0  0  0  0  0  0  0  0  0
    0.6778   -3.1116    5.4786 H   0  0  0  0  0  0  0  0  0  0  0  0
   -0.7719   -4.9140    5.2278 H   0  0  0  0  0  0  0  0  0  0  0  0
   -2.1714   -4.7589    4.0784 H   0  0  0  0  0  0  0  0  0  0  0  0
   -0.6573   -5.6049    3.5500 H   0  0  0  0  0  0  0  0  0  0  0  0
    1.3813    0.2361    5.1401 H   0  0  0  0  0  0  0  0  0  0  0  0
    2.1143   -1.3052    5.7656 H   0  0  0  0  0  0  0  0  0  0  0  0
    2.7974   -0.5059    4.2826 H   0  0  0  0  0  0  0  0  0  0  0  0
   -1.2682   -1.9166    0.2527 H   0  0  0  0  0  0  0  0  0  0  0  0
   -1.4272    5.0959    3.6079 H   0  0  0  0  0  0  0  0  0  0  0  0
   -2.9073    4.9686    2.8021 H   0  0  0  0  0  0  0  0  0  0  0  0
    0.4125    3.5109    3.2803 H   0  0  0  0  0  0  0  0  0  0  0  0
    1.2500    1.5689    1.9986 H   0  0  0  0  0  0  0  0  0  0  0  0
   -3.4085    3.1871    1.1995 H   0  0  0  0  0  0  0  0  0  0  0  0
   -2.5266    1.2620   -0.0701 H   0  0  0  0  0  0  0  0  0  0  0  0
  1  2  2  0  0  0  0
  1  4  1  0  0  0  0
  1 13  1  0  0  0  0
  3  1  2  0  0  0  0
  4  5  1  0  0  0  0
  5  6  2  0  0  0  0
  5 10  1  0  0  0  0
  6  7  1  0  0  0  0
  7  9  1  0  0  0  0
  7  8  2  0  0  0  0
  8 20  1  0  0  0  0
  9 21  1  0  0  0  0
 10 11  2  0  0  0  0
 11  8  1  0  0  0  0
 11 12  1  0  0  0  0
 12 24  1  0  0  0  0
 12 25  1  0  0  0  0
 13 14  1  0  0  0  0
 14 31  1  0  0  0  0
 14 15  2  0  0  0  0
 15 30  1  0  0  0  0
 16 15  1  0  0  0  0
 16 17  1  0  0  0  0
 17 28  1  0  0  0  0
 18 13  2  0  0  0  0
 18 19  1  0  0  0  0
 19 16  2  0  0  0  0
 22  9  1  0  0  0  0
 23  9  1  0  0  0  0
 26 12  1  0  0  0  0
 27  4  1  0  0  0  0
 29 17  1  0  0  0  0
 32 19  1  0  0  0  0
 33 18  1  0  0  0  0
M  END