
  Mrv0541 02201500303D          

 39 40  0  0  0  0            999 V2000
    0.0000    0.0000    0.0000 C   0  0  0  0  0  0  0  0  0  0  0  0
    1.3976    0.0000    0.0000 C   0  0  0  0  0  0  0  0  0  0  0  0
    2.0955    0.0000    1.2147 C   0  0  0  0  0  0  0  0  0  0  0  0
    1.3994   -0.0174    2.4419 C   0  0  0  0  0  0  0  0  0  0  0  0
   -0.0122    0.0042    2.4212 C   0  0  0  0  0  0  0  0  0  0  0  0
   -0.7059    0.0086    1.2056 C   0  0  0  0  0  0  0  0  0  0  0  0
   -1.6983    1.0814   -1.4673 C   0  0  0  0  0  0  0  0  0  0  0  0
   -1.2815    2.4506   -1.5963 C   0  0  0  0  0  0  0  0  0  0  0  0
   -2.1916    3.4596   -1.7747 N   0  0  0  0  0  0  0  0  0  0  0  0
   -3.5202    3.0909   -1.8797 C   0  0  0  0  0  0  0  0  0  0  0  0
   -4.0052    1.7906   -1.7437 N   0  0  0  0  0  0  0  0  0  0  0  0
   -3.0797    0.8432   -1.5491 C   0  0  0  0  0  0  0  0  0  0  0  0
    3.4703    0.0397    1.3149 O   0  0  0  0  0  0  0  0  0  0  0  0
    2.1069   -0.1678    3.6189 O   0  0  0  0  0  0  0  0  0  0  0  0
   -0.6200    0.0393    3.6593 O   0  0  0  0  0  0  0  0  0  0  0  0
   -0.7414   -0.0361   -1.2972 C   0  0  2  0  0  0  0  0  0  0  0  0
   -4.4398    4.0949   -2.1917 N   0  0  0  0  0  0  0  0  0  0  0  0
   -4.1466    5.0342   -2.0616 H   0  0  0  0  0  0  0  0  0  0  0  0
   -5.3969    3.8960   -2.0191 H   0  0  0  0  0  0  0  0  0  0  0  0
    0.3162    3.7309   -1.5226 H   0  0  0  0  0  0  0  0  0  0  0  0
    0.0718    2.7697   -1.5980 N   0  0  1  0  0  0  0  0  0  0  0  0
    0.6589    2.1349   -1.1044 H   0  0  0  0  0  0  0  0  0  0  0  0
    1.9434   -0.0124   -0.9540 H   0  0  0  0  0  0  0  0  0  0  0  0
   -1.2956   -1.0155   -1.3515 H   0  0  0  0  0  0  0  0  0  0  0  0
   -0.0108   -0.0307   -2.1540 H   0  0  0  0  0  0  0  0  0  0  0  0
   -3.4757   -0.1859   -1.4501 H   0  0  0  0  0  0  0  0  0  0  0  0
   -1.8048    0.0189    1.1833 H   0  0  0  0  0  0  0  0  0  0  0  0
   -2.0388   -0.0868    3.6665 C   0  0  0  0  0  0  0  0  0  0  0  0
   -2.3559   -1.0349    3.1691 H   0  0  0  0  0  0  0  0  0  0  0  0
   -2.5127    0.7951    3.1712 H   0  0  0  0  0  0  0  0  0  0  0  0
   -2.2889   -0.1092    4.7577 H   0  0  0  0  0  0  0  0  0  0  0  0
    2.1291    1.0073    4.4317 C   0  0  0  0  0  0  0  0  0  0  0  0
    2.6395    1.8414    3.8933 H   0  0  0  0  0  0  0  0  0  0  0  0
    2.7187    0.6930    5.3285 H   0  0  0  0  0  0  0  0  0  0  0  0
    1.0904    1.3009    4.7187 H   0  0  0  0  0  0  0  0  0  0  0  0
    4.1927   -0.2427    0.1206 C   0  0  0  0  0  0  0  0  0  0  0  0
    5.2550   -0.2996    0.4698 H   0  0  0  0  0  0  0  0  0  0  0  0
    4.0659    0.5876   -0.6162 H   0  0  0  0  0  0  0  0  0  0  0  0
    3.8697   -1.2146   -0.3240 H   0  0  0  0  0  0  0  0  0  0  0  0
  1  2  2  0  0  0  0
  1  6  1  0  0  0  0
  2  3  1  0  0  0  0
  3 13  1  0  0  0  0
  3  4  2  0  0  0  0
  4 14  1  0  0  0  0
  5  4  1  0  0  0  0
  5 15  1  0  0  0  0
  6  5  2  0  0  0  0
  7 16  1  0  0  0  0
  8  7  2  0  0  0  0
  9  8  1  0  0  0  0
 10  9  2  0  0  0  0
 10 11  1  0  0  0  0
 11 12  2  0  0  0  0
 12  7  1  0  0  0  0
 12 26  1  0  0  0  0
 14 32  1  0  0  0  0
 15 28  1  0  0  0  0
 16  1  1  0  0  0  0
 17 18  1  0  0  0  0
 17 19  1  0  0  0  0
 17 10  1  0  0  0  0
 21  8  1  0  0  0  0
 21 20  1  0  0  0  0
 21 22  1  0  0  0  0
 23  2  1  0  0  0  0
 24 16  1  0  0  0  0
 25 16  1  0  0  0  0
 27  6  1  0  0  0  0
 28 31  1  0  0  0  0
 29 28  1  0  0  0  0
 30 28  1  0  0  0  0
 32 35  1  0  0  0  0
 32 34  1  0  0  0  0
 33 32  1  0  0  0  0
 36 37  1  0  0  0  0
 36 13  1  0  0  0  0
 38 36  1  0  0  0  0
 39 36  1  0  0  0  0
M  END