
  Mrv0541 02201500303D          

 38 41  0  0  0  0            999 V2000
    0.0000    0.0000    0.0000 C   0  0  0  0  0  0  0  0  0  0  0  0
    1.3957    0.0000    0.0000 C   0  0  0  0  0  0  0  0  0  0  0  0
    2.0901    0.0000    1.2058 C   0  0  0  0  0  0  0  0  0  0  0  0
    1.3722   -0.0133    2.4053 C   0  0  0  0  0  0  0  0  0  0  0  0
    2.1160   -0.1060    3.5896 O   0  0  0  0  0  0  0  0  0  0  0  0
    1.9131    0.9944    4.4248 C   0  0  0  0  0  0  0  0  0  0  0  0
    3.0264    1.8055    4.6871 C   0  0  0  0  0  0  0  0  0  0  0  0
    2.8997    2.8845    5.5547 C   0  0  0  0  0  0  0  0  0  0  0  0
   -0.7157   -0.0159    1.1913 C   0  0  0  0  0  0  0  0  0  0  0  0
   -0.0442   -0.0299    2.4380 C   0  0  0  0  0  0  0  0  0  0  0  0
   -0.8054   -0.1742    3.6025 N   0  0  0  0  0  0  0  0  0  0  0  0
   -0.5055    0.3568    4.7593 C   0  0  0  0  0  0  0  0  0  0  0  0
    0.6698    1.2393    5.0316 C   0  0  0  0  0  0  0  0  0  0  0  0
    0.5481    2.3473    5.8808 C   0  0  0  0  0  0  0  0  0  0  0  0
    1.6564    3.1580    6.1367 C   0  0  0  0  0  0  0  0  0  0  0  0
    1.4923    4.4962    7.1721 Cl  0  0  0  0  0  0  0  0  0  0  0  0
   -1.3780    0.1825    5.8822 N   0  0  1  0  0  0  0  0  0  0  0  0
   -2.6864   -0.4037    5.6176 C   0  0  2  0  0  0  0  0  0  0  0  0
   -3.5906   -0.3776    6.8686 C   0  0  1  0  0  0  0  0  0  0  0  0
   -2.9505   -0.9350    8.0426 N   0  0  1  0  0  0  0  0  0  0  0  0
   -0.7268   -0.4099    7.0467 C   0  0  2  0  0  0  0  0  0  0  0  0
   -1.6359   -0.3808    8.2930 C   0  0  2  0  0  0  0  0  0  0  0  0
   -0.5445    0.0094   -0.9566 H   0  0  0  0  0  0  0  0  0  0  0  0
    1.9483    0.0022   -0.9508 H   0  0  0  0  0  0  0  0  0  0  0  0
    3.1893   -0.0016    1.2315 H   0  0  0  0  0  0  0  0  0  0  0  0
    3.9891    1.5748    4.2075 H   0  0  0  0  0  0  0  0  0  0  0  0
    3.7700    3.5225    5.7728 H   0  0  0  0  0  0  0  0  0  0  0  0
   -1.8169   -0.0247    1.1675 H   0  0  0  0  0  0  0  0  0  0  0  0
   -0.4233    2.5827    6.3464 H   0  0  0  0  0  0  0  0  0  0  0  0
   -3.9381    0.6841    7.0351 H   0  0  0  0  0  0  0  0  0  0  0  0
   -4.4978   -1.0061    6.6447 H   0  0  0  0  0  0  0  0  0  0  0  0
   -3.5360   -0.8119    8.8475 H   0  0  0  0  0  0  0  0  0  0  0  0
   -2.5986   -1.4685    5.2562 H   0  0  0  0  0  0  0  0  0  0  0  0
   -3.1912    0.2016    4.8146 H   0  0  0  0  0  0  0  0  0  0  0  0
   -1.1448   -1.0101    9.0872 H   0  0  0  0  0  0  0  0  0  0  0  0
   -1.6834    0.6817    8.6732 H   0  0  0  0  0  0  0  0  0  0  0  0
    0.2024    0.1804    7.2807 H   0  0  0  0  0  0  0  0  0  0  0  0
   -0.4261   -1.4779    6.8419 H   0  0  0  0  0  0  0  0  0  0  0  0
  1  2  2  0  0  0  0
  1  9  1  0  0  0  0
  2  3  1  0  0  0  0
  3 25  1  0  0  0  0
  3  4  2  0  0  0  0
  4 10  1  0  0  0  0
  4  5  1  0  0  0  0
  5  6  1  0  0  0  0
  6  7  2  0  0  0  0
  6 13  1  0  0  0  0
  7  8  1  0  0  0  0
  8 27  1  0  0  0  0
  8 15  2  0  0  0  0
  9 10  2  0  0  0  0
 10 11  1  0  0  0  0
 11 12  2  0  0  0  0
 12 13  1  0  0  0  0
 12 17  1  0  0  0  0
 13 14  2  0  0  0  0
 14 15  1  0  0  0  0
 14 29  1  0  0  0  0
 15 16  1  0  0  0  0
 17 21  1  0  0  0  0
 18 17  1  0  0  0  0
 18 19  1  0  0  0  0
 19 30  1  0  0  0  0
 19 20  1  0  0  0  0
 20 22  1  0  0  0  0
 20 32  1  0  0  0  0
 21 37  1  0  0  0  0
 21 22  1  0  0  0  0
 22 36  1  0  0  0  0
 22 35  1  0  0  0  0
 23  1  1  0  0  0  0
 24  2  1  0  0  0  0
 26  7  1  0  0  0  0
 28  9  1  0  0  0  0
 31 19  1  0  0  0  0
 33 18  1  0  0  0  0
 34 18  1  0  0  0  0
 38 21  1  0  0  0  0
M  END