
  Mrv0541 02201500303D          

 51 54  0  0  0  0            999 V2000
    0.0000    0.0000    0.0000 C   0  0  0  0  0  0  0  0  0  0  0  0
    1.3236    0.0000    0.0000 N   0  0  0  0  0  0  0  0  0  0  0  0
    2.0091    0.0000    1.1372 N   0  0  0  0  0  0  0  0  0  0  0  0
    1.4018   -0.0111    2.4246 C   0  0  0  0  0  0  0  0  0  0  0  0
   -0.0758   -0.0058    2.4476 C   0  0  0  0  0  0  0  0  0  0  0  0
   -0.7894    0.0002    1.2324 C   0  0  0  0  0  0  0  0  0  0  0  0
   -2.1922    0.0061    1.2648 C   0  0  0  0  0  0  0  0  0  0  0  0
   -2.8597    0.0052    2.4835 C   0  0  0  0  0  0  0  0  0  0  0  0
   -2.1456   -0.0015    3.6877 C   0  0  0  0  0  0  0  0  0  0  0  0
   -0.7566   -0.0070    3.6732 C   0  0  0  0  0  0  0  0  0  0  0  0
    0.0648   -0.0239   -2.5300 C   0  0  0  0  0  0  0  0  0  0  0  0
    0.5010   -1.2419   -3.0644 C   0  0  0  0  0  0  0  0  0  0  0  0
    1.2474   -1.2728   -4.2401 C   0  0  0  0  0  0  0  0  0  0  0  0
    1.5611   -0.0743   -4.8885 C   0  0  0  0  0  0  0  0  0  0  0  0
    1.1332    1.1491   -4.3643 C   0  0  0  0  0  0  0  0  0  0  0  0
    0.3878    1.1686   -3.1874 C   0  0  0  0  0  0  0  0  0  0  0  0
    2.4696   -0.1052   -6.3260 Cl  0  0  0  0  0  0  0  0  0  0  0  0
   -0.7643   -0.0002   -1.2942 C   0  0  2  0  0  0  0  0  0  0  0  0
    3.4932   -0.0061    1.0498 C   0  0  2  0  0  0  0  0  0  0  0  0
    4.0563    1.2211    0.3235 C   0  0  2  0  0  0  0  0  0  0  0  0
    4.3560    1.0169   -1.1595 C   0  0  2  0  0  0  0  0  0  0  0  0
    5.7098    0.5428   -1.4202 N   0  0  1  0  0  0  0  0  0  0  0  0
    5.9242   -0.8641   -1.1209 C   0  0  2  0  0  0  0  0  0  0  0  0
    5.5204   -1.2963    0.2857 C   0  0  1  0  0  0  0  0  0  0  0  0
    4.0201   -1.3283    0.4783 C   0  0  2  0  0  0  0  0  0  0  0  0
    6.1643    0.8795   -2.7520 C   0  0  0  0  0  0  0  0  0  0  0  0
    2.0990   -0.0224    3.4557 O   0  0  0  0  0  0  0  0  0  0  0  0
   -0.1739   -0.0120    4.6092 H   0  0  0  0  0  0  0  0  0  0  0  0
   -2.6867   -0.0022    4.6456 H   0  0  0  0  0  0  0  0  0  0  0  0
   -3.9604    0.0099    2.5040 H   0  0  0  0  0  0  0  0  0  0  0  0
   -2.7665    0.0118    0.3264 H   0  0  0  0  0  0  0  0  0  0  0  0
   -1.4168    0.9172   -1.2996 H   0  0  0  0  0  0  0  0  0  0  0  0
    0.0537    2.1318   -2.7726 H   0  0  0  0  0  0  0  0  0  0  0  0
    1.3822    2.0912   -4.8752 H   0  0  0  0  0  0  0  0  0  0  0  0
    1.5865   -2.2345   -4.6534 H   0  0  0  0  0  0  0  0  0  0  0  0
    0.2558   -2.1842   -2.5512 H   0  0  0  0  0  0  0  0  0  0  0  0
    4.2467    2.0219   -1.6622 H   0  0  0  0  0  0  0  0  0  0  0  0
    3.5794    0.3350   -1.6114 H   0  0  0  0  0  0  0  0  0  0  0  0
    4.9928    1.5249    0.8654 H   0  0  0  0  0  0  0  0  0  0  0  0
    3.3419    2.0822    0.4098 H   0  0  0  0  0  0  0  0  0  0  0  0
    3.8472    0.0609    2.1267 H   0  0  0  0  0  0  0  0  0  0  0  0
    3.5198   -1.5717   -0.4955 H   0  0  0  0  0  0  0  0  0  0  0  0
    3.7585   -2.1510    1.1971 H   0  0  0  0  0  0  0  0  0  0  0  0
    5.9262   -2.3323    0.4385 H   0  0  0  0  0  0  0  0  0  0  0  0
    6.0020   -0.6336    1.0508 H   0  0  0  0  0  0  0  0  0  0  0  0
    7.0304   -1.0550   -1.2370 H   0  0  0  0  0  0  0  0  0  0  0  0
    5.3883   -1.5296   -1.8628 H   0  0  0  0  0  0  0  0  0  0  0  0
    7.2307    0.5517   -2.8674 H   0  0  0  0  0  0  0  0  0  0  0  0
    6.1180    1.9924   -2.8814 H   0  0  0  0  0  0  0  0  0  0  0  0
    5.5544    0.3990   -3.5657 H   0  0  0  0  0  0  0  0  0  0  0  0
   -1.4393   -0.9015   -1.2862 H   0  0  0  0  0  0  0  0  0  0  0  0
  1  2  2  0  0  0  0
  1  6  1  0  0  0  0
  2  3  1  0  0  0  0
  3  4  1  0  0  0  0
  4  5  1  0  0  0  0
  4 27  2  0  0  0  0
  5 10  1  0  0  0  0
  6  5  2  0  0  0  0
  6  7  1  0  0  0  0
  7  8  2  0  0  0  0
  8 30  1  0  0  0  0
  8  9  1  0  0  0  0
  9 29  1  0  0  0  0
 10  9  2  0  0  0  0
 10 28  1  0  0  0  0
 11 18  1  0  0  0  0
 12 11  1  0  0  0  0
 12 36  1  0  0  0  0
 13 12  2  0  0  0  0
 14 13  1  0  0  0  0
 14 15  2  0  0  0  0
 15 16  1  0  0  0  0
 16 11  2  0  0  0  0
 16 33  1  0  0  0  0
 17 14  1  0  0  0  0
 18  1  1  0  0  0  0
 18 51  1  0  0  0  0
 19  3  1  0  0  0  0
 19 41  1  1  0  0  0
 20 19  1  0  0  0  0
 20 40  1  0  0  0  0
 20 39  1  0  0  0  0
 21 20  1  0  0  0  0
 22 21  1  0  0  0  0
 22 23  1  0  0  0  0
 23 24  1  0  0  0  0
 24 44  1  0  0  0  0
 24 25  1  0  0  0  0
 24 45  1  0  0  0  0
 25 19  1  0  0  0  0
 25 43  1  0  0  0  0
 26 22  1  0  0  0  0
 31  7  1  0  0  0  0
 32 18  1  0  0  0  0
 34 15  1  0  0  0  0
 35 13  1  0  0  0  0
 37 21  1  0  0  0  0
 38 21  1  0  0  0  0
 42 25  1  0  0  0  0
 46 23  1  0  0  0  0
 47 23  1  0  0  0  0
 48 26  1  0  0  0  0
 49 26  1  0  0  0  0
 50 26  1  0  0  0  0
M  END