
  Mrv0541 02201500303D          

 20 21  0  0  0  0            999 V2000
    0.0000    0.0000    0.0000 C   0  0  0  0  0  0  0  0  0  0  0  0
    1.4195    0.0000    0.0000 C   0  0  0  0  0  0  0  0  0  0  0  0
    2.1045    0.0000    1.2387 C   0  0  0  0  0  0  0  0  0  0  0  0
    1.3963   -0.0106    2.4206 C   0  0  0  0  0  0  0  0  0  0  0  0
    2.0620    0.0099   -1.3085 C   0  0  0  0  0  0  0  0  0  0  0  0
    1.3172    0.0169   -2.4545 N   0  0  0  0  0  0  0  0  0  0  0  0
    3.4859    0.1157   -1.3716 N   0  0  2  0  0  0  0  0  0  0  0  0
    4.1709   -0.0141   -2.5416 N   0  0  2  0  0  0  0  0  0  0  0  0
   -0.7065   -0.0120    1.2256 C   0  0  0  0  0  0  0  0  0  0  0  0
   -0.0163   -0.0192    2.4164 C   0  0  0  0  0  0  0  0  0  0  0  0
   -0.6556    0.0150   -1.2765 C   0  0  0  0  0  0  0  0  0  0  0  0
    0.0272    0.0257   -2.4253 N   0  0  0  0  0  0  0  0  0  0  0  0
    3.2044    0.0234    1.2693 H   0  0  0  0  0  0  0  0  0  0  0  0
    1.9276   -0.0086    3.3848 H   0  0  0  0  0  0  0  0  0  0  0  0
    3.9107   -0.4837   -0.6759 H   0  0  0  0  0  0  0  0  0  0  0  0
    4.0687    0.8491   -3.0626 H   0  0  0  0  0  0  0  0  0  0  0  0
    3.8106   -0.7582   -3.1302 H   0  0  0  0  0  0  0  0  0  0  0  0
   -1.8068   -0.0139    1.2055 H   0  0  0  0  0  0  0  0  0  0  0  0
   -0.5557   -0.0287    3.3757 H   0  0  0  0  0  0  0  0  0  0  0  0
   -1.7556    0.0189   -1.3429 H   0  0  0  0  0  0  0  0  0  0  0  0
  1  9  1  0  0  0  0
  2  1  1  0  0  0  0
  2  3  1  0  0  0  0
  3 13  1  0  0  0  0
  3  4  2  0  0  0  0
  4 14  1  0  0  0  0
  5  2  2  0  0  0  0
  6  5  1  0  0  0  0
  6 12  2  0  0  0  0
  7  5  1  0  0  0  0
  7 15  1  0  0  0  0
  8  7  1  0  0  0  0
  9 10  2  0  0  0  0
 10  4  1  0  0  0  0
 10 19  1  0  0  0  0
 11  1  2  0  0  0  0
 12 11  1  0  0  0  0
 16  8  1  0  0  0  0
 17  8  1  0  0  0  0
 18  9  1  0  0  0  0
 20 11  1  0  0  0  0
M  END