
  Mrv0541 02201500303D          

 41 43  0  0  0  0            999 V2000
    0.0000    0.0000    0.0000 C   0  0  0  0  0  0  0  0  0  0  0  0
    1.4446    0.0000    0.0000 C   0  0  0  0  0  0  0  0  0  0  0  0
    2.1506    0.0000    1.1937 C   0  0  0  0  0  0  0  0  0  0  0  0
    1.4192    0.0135    2.3923 C   0  0  0  0  0  0  0  0  0  0  0  0
    0.0141    0.0317    2.3988 C   0  0  0  0  0  0  0  0  0  0  0  0
   -0.7029    0.0282    1.2060 C   0  0  0  0  0  0  0  0  0  0  0  0
   -0.4426   -0.0005   -1.3478 N   0  0  0  0  0  0  0  0  0  0  0  0
    0.7141    0.0282   -2.1787 C   0  0  0  0  0  0  0  0  0  0  0  0
    1.8628    0.0175   -1.3912 C   0  0  0  0  0  0  0  0  0  0  0  0
    2.1980    0.0127    3.5359 O   0  0  0  0  0  0  0  0  0  0  0  0
    1.4998    0.0215    4.7745 C   0  0  0  0  0  0  0  0  0  0  0  0
    3.2579    0.0712   -1.8486 C   0  0  2  0  0  0  0  0  0  0  0  0
    3.7199   -1.2356   -2.4256 C   0  0  0  0  0  0  0  0  0  0  0  0
    4.5837   -1.9216   -1.6262 O   0  0  0  0  0  0  0  0  0  0  0  0
    3.4537   -1.7446   -3.5183 O   0  0  0  0  0  0  0  0  0  0  0  0
    0.6523    0.0431   -3.6531 C   0  0  0  0  0  0  0  0  0  0  0  0
   -1.7622    0.0664   -1.8258 C   0  0  0  0  0  0  0  0  0  0  0  0
   -2.8774   -0.3614   -0.9374 C   0  0  0  0  0  0  0  0  0  0  0  0
   -3.9281    0.5300   -0.6949 C   0  0  0  0  0  0  0  0  0  0  0  0
   -5.0201    0.1266    0.0706 C   0  0  0  0  0  0  0  0  0  0  0  0
   -5.0626   -1.1757    0.5802 C   0  0  0  0  0  0  0  0  0  0  0  0
   -4.0196   -2.0741    0.3289 C   0  0  0  0  0  0  0  0  0  0  0  0
   -2.9249   -1.6635   -0.4293 C   0  0  0  0  0  0  0  0  0  0  0  0
   -1.9802    0.4531   -2.9848 O   0  0  0  0  0  0  0  0  0  0  0  0
   -6.3939   -1.6721    1.5094 Cl  0  0  0  0  0  0  0  0  0  0  0  0
    0.8824    0.9471    4.8741 H   0  0  0  0  0  0  0  0  0  0  0  0
    0.8606   -0.8890    4.8754 H   0  0  0  0  0  0  0  0  0  0  0  0
    2.3214    0.0123    5.5353 H   0  0  0  0  0  0  0  0  0  0  0  0
   -0.5394    0.0512    3.3484 H   0  0  0  0  0  0  0  0  0  0  0  0
   -1.8023    0.0471    1.2289 H   0  0  0  0  0  0  0  0  0  0  0  0
    3.2490   -0.0120    1.2152 H   0  0  0  0  0  0  0  0  0  0  0  0
    3.9284    0.3487   -0.9890 H   0  0  0  0  0  0  0  0  0  0  0  0
    3.3740    0.8477   -2.6552 H   0  0  0  0  0  0  0  0  0  0  0  0
    4.8383   -2.7542   -2.0569 H   0  0  0  0  0  0  0  0  0  0  0  0
    1.6622   -0.2039   -4.0700 H   0  0  0  0  0  0  0  0  0  0  0  0
   -0.0878   -0.7050   -4.0354 H   0  0  0  0  0  0  0  0  0  0  0  0
    0.3306    1.0534   -4.0138 H   0  0  0  0  0  0  0  0  0  0  0  0
   -2.1011   -2.3673   -0.6273 H   0  0  0  0  0  0  0  0  0  0  0  0
   -4.0604   -3.1006    0.7247 H   0  0  0  0  0  0  0  0  0  0  0  0
   -5.8456    0.8287    0.2646 H   0  0  0  0  0  0  0  0  0  0  0  0
   -3.8950    1.5460   -1.1192 H   0  0  0  0  0  0  0  0  0  0  0  0
  1  2  2  0  0  0  0
  1  6  1  0  0  0  0
  2  3  1  0  0  0  0
  3 31  1  0  0  0  0
  3  4  2  0  0  0  0
  4  5  1  0  0  0  0
  4 10  1  0  0  0  0
  5 29  1  0  0  0  0
  6  5  2  0  0  0  0
  6 30  1  0  0  0  0
  7  1  1  0  0  0  0
  8  7  1  0  0  0  0
  8  9  2  0  0  0  0
  9  2  1  0  0  0  0
 10 11  1  0  0  0  0
 11 26  1  0  0  0  0
 11 27  1  0  0  0  0
 11 28  1  0  0  0  0
 12  9  1  0  0  0  0
 12 32  1  0  0  0  0
 13 12  1  0  0  0  0
 13 14  1  0  0  0  0
 15 13  2  0  0  0  0
 16  8  1  0  0  0  0
 17  7  1  0  0  0  0
 17 18  1  0  0  0  0
 18 19  2  0  0  0  0
 18 23  1  0  0  0  0
 19 20  1  0  0  0  0
 20 40  1  0  0  0  0
 20 21  2  0  0  0  0
 21 25  1  0  0  0  0
 22 21  1  0  0  0  0
 22 39  1  0  0  0  0
 23 22  2  0  0  0  0
 24 17  2  0  0  0  0
 33 12  1  0  0  0  0
 34 14  1  0  0  0  0
 35 16  1  0  0  0  0
 36 16  1  0  0  0  0
 37 16  1  0  0  0  0
 38 23  1  0  0  0  0
 41 19  1  0  0  0  0
M  END