1f_fix.pdb
 OpenBabel09161415133D

 37 38  0  0  0  0  0  0  0  0999 V2000
   -1.3560    9.0120   11.4600 N   0  0  0  0  0  0  0  0  0  0  0  0
   -1.5440    7.8500   12.1120 C   0  0  0  0  0  0  0  0  0  0  0  0
   -1.4420    7.9540   13.4360 N   0  0  0  0  0  0  0  0  0  0  0  0
   -1.1900    9.0050   14.1490 C   0  0  0  0  0  0  0  0  0  0  0  0
   -1.0020   10.2410   13.5110 C   0  0  0  0  0  0  0  0  0  0  0  0
   -1.0940   10.1920   12.1250 C   0  0  0  0  0  0  0  0  0  0  0  0
   -1.8870    6.1790   11.4530 S   0  0  0  0  0  0  0  0  0  0  0  0
   -2.0450    5.1780   12.9480 C   0  0  0  0  0  0  0  0  0  0  0  0
   -3.5030    5.2490   13.3330 C   0  0  0  0  0  0  0  0  0  0  0  0
   -4.1950    6.0990   12.8090 O   0  0  0  0  0  0  0  0  0  0  0  0
   -1.1360    8.7320   15.5790 C   0  0  0  0  0  0  0  0  0  0  0  0
   -0.8980   11.4970   11.3900 C   0  0  0  0  0  0  0  0  0  0  0  0
   -4.1800    4.2360   14.2170 C   0  0  0  0  0  0  0  0  0  0  0  0
   -3.3950    3.1790   14.5780 C   0  0  0  0  0  0  0  0  0  0  0  0
   -3.9210    2.1820   15.4310 C   0  0  0  0  0  0  0  0  0  0  0  0
   -5.2530    2.2380   15.7830 C   0  0  0  0  0  0  0  0  0  0  0  0
   -6.0630    3.2960   15.3870 C   0  0  0  0  0  0  0  0  0  0  0  0
   -5.5460    4.3270   14.5820 C   0  0  0  0  0  0  0  0  0  0  0  0
   -5.9030    0.8760   16.7610 S   0  0  0  0  0  0  0  0  0  0  0  0
   -7.3790    0.8960   16.5530 O   0  0  0  0  0  0  0  0  0  0  0  0
   -5.3080    1.0000   18.0900 O   0  0  0  0  0  0  0  0  0  0  0  0
   -5.2190   -0.4730   16.0140 N   0  0  0  0  0  0  0  0  0  0  0  0
   -0.8110   11.1140   14.0280 H   0  0  0  0  0  0  0  0  0  0  0  0
   -1.4230    5.5590   13.7310 H   0  0  0  0  0  0  0  0  0  0  0  0
   -1.7310    4.1690   12.7800 H   0  0  0  0  0  0  0  0  0  0  0  0
   -1.3210    7.6920   15.7510 H   0  0  0  0  0  0  0  0  0  0  0  0
   -1.8580    9.3280   16.0970 H   0  0  0  0  0  0  0  0  0  0  0  0
   -0.1630    8.9820   15.9480 H   0  0  0  0  0  0  0  0  0  0  0  0
   -0.9920   11.3310   10.3370 H   0  0  0  0  0  0  0  0  0  0  0  0
    0.0630   11.9090   11.6160 H   0  0  0  0  0  0  0  0  0  0  0  0
   -1.6470   12.1940   11.7040 H   0  0  0  0  0  0  0  0  0  0  0  0
   -2.4260    3.1080   14.2310 H   0  0  0  0  0  0  0  0  0  0  0  0
   -3.3170    1.4240   15.7850 H   0  0  0  0  0  0  0  0  0  0  0  0
   -7.0500    3.3250   15.6860 H   0  0  0  0  0  0  0  0  0  0  0  0
   -6.1360    5.1150   14.2710 H   0  0  0  0  0  0  0  0  0  0  0  0
   -5.6170   -0.5840   15.0820 H   0  0  0  0  0  0  0  0  0  0  0  0
   -5.3880   -1.3100   16.5720 H   0  0  0  0  0  0  0  0  0  0  0  0
  1  2  2  0  0  0  0
  1  6  1  0  0  0  0
  2  3  1  0  0  0  0
  3  4  2  0  0  0  0
  4 11  1  0  0  0  0
  5 23  1  0  0  0  0
  5  4  1  0  0  0  0
  6  5  2  0  0  0  0
  7  2  1  0  0  0  0
  7  8  1  0  0  0  0
  8  9  1  0  0  0  0
  8 24  1  0  0  0  0
  9 13  1  0  0  0  0
 10  9  2  0  0  0  0
 11 26  1  0  0  0  0
 11 28  1  0  0  0  0
 11 27  1  0  0  0  0
 12 30  1  0  0  0  0
 12 31  1  0  0  0  0
 12  6  1  0  0  0  0
 13 14  2  0  0  0  0
 13 18  1  0  0  0  0
 14 15  1  0  0  0  0
 15 16  2  0  0  0  0
 15 33  1  0  0  0  0
 16 19  1  0  0  0  0
 17 34  1  0  0  0  0
 17 16  1  0  0  0  0
 18 17  2  0  0  0  0
 19 21  2  0  0  0  0
 20 19  2  0  0  0  0
 22 37  1  0  0  0  0
 22 19  1  0  0  0  0
 25  8  1  0  0  0  0
 29 12  1  0  0  0  0
 32 14  1  0  0  0  0
 35 18  1  0  0  0  0
 36 22  1  0  0  0  0
M  END