1g_fix.pdb
 OpenBabel09161415133D

 37 38  0  0  0  0  0  0  0  0999 V2000
   -0.5030    8.7320   14.8530 N   0  0  0  0  0  0  0  0  0  0  0  0
    0.1480    9.7390   15.3690 C   0  0  0  0  0  0  0  0  0  0  0  0
    0.1890   11.0140   14.8470 C   0  0  0  0  0  0  0  0  0  0  0  0
   -0.5150   11.2910   13.6640 C   0  0  0  0  0  0  0  0  0  0  0  0
   -1.1690   10.2110   13.1710 N   0  0  0  0  0  0  0  0  0  0  0  0
   -1.1330    8.9760   13.7890 C   0  0  0  0  0  0  0  0  0  0  0  0
    1.0150   11.9230   15.6620 C   0  0  0  0  0  0  0  0  0  0  0  0
    2.4780   11.5550   15.2910 C   0  0  0  0  0  0  0  0  0  0  0  0
   -1.9390    7.5770   13.1770 S   0  0  0  0  0  0  0  0  0  0  0  0
   -2.0780    5.8720   13.7480 C   0  0  0  0  0  0  0  0  0  0  0  0
   -3.5400    5.4540   13.5820 C   0  0  0  0  0  0  0  0  0  0  0  0
   -4.2870    6.0380   12.7900 O   0  0  0  0  0  0  0  0  0  0  0  0
   -4.1460    4.3250   14.3680 C   0  0  0  0  0  0  0  0  0  0  0  0
   -5.5220    4.2950   14.6170 C   0  0  0  0  0  0  0  0  0  0  0  0
   -6.0260    3.2000   15.3590 C   0  0  0  0  0  0  0  0  0  0  0  0
   -5.1990    2.2010   15.8480 C   0  0  0  0  0  0  0  0  0  0  0  0
   -3.8460    2.2420   15.5920 C   0  0  0  0  0  0  0  0  0  0  0  0
   -3.3150    3.3020   14.8470 C   0  0  0  0  0  0  0  0  0  0  0  0
   -5.8530    0.8040   16.7700 S   0  0  0  0  0  0  0  0  0  0  0  0
   -5.3050    0.9610   18.1290 O   0  0  0  0  0  0  0  0  0  0  0  0
   -7.3140    0.9010   16.6260 O   0  0  0  0  0  0  0  0  0  0  0  0
   -5.1390   -0.5220   15.9850 N   0  0  0  0  0  0  0  0  0  0  0  0
    0.6750    9.5660   16.2390 H   0  0  0  0  0  0  0  0  0  0  0  0
   -0.5330   12.2210   13.2160 H   0  0  0  0  0  0  0  0  0  0  0  0
    0.8330   11.7780   16.7060 H   0  0  0  0  0  0  0  0  0  0  0  0
    0.7950   12.9520   15.4700 H   0  0  0  0  0  0  0  0  0  0  0  0
   -1.7760    5.7910   14.7710 H   0  0  0  0  0  0  0  0  0  0  0  0
   -1.4380    5.2320   13.1780 H   0  0  0  0  0  0  0  0  0  0  0  0
   -6.1450    5.0420   14.2730 H   0  0  0  0  0  0  0  0  0  0  0  0
   -7.0400    3.1440   15.5410 H   0  0  0  0  0  0  0  0  0  0  0  0
   -3.2280    1.4960   15.9470 H   0  0  0  0  0  0  0  0  0  0  0  0
   -2.3030    3.3310   14.6490 H   0  0  0  0  0  0  0  0  0  0  0  0
   -5.5310   -0.6140   15.0480 H   0  0  0  0  0  0  0  0  0  0  0  0
   -5.2980   -1.3760   16.5190 H   0  0  0  0  0  0  0  0  0  0  0  0
    2.6500   10.5200   15.5000 H   0  0  0  0  0  0  0  0  0  0  0  0
    3.1640   12.1630   15.8430 H   0  0  0  0  0  0  0  0  0  0  0  0
    2.6320   11.7330   14.2470 H   0  0  0  0  0  0  0  0  0  0  0  0
  1  2  1  0  0  0  0
  2 23  1  0  0  0  0
  3  2  2  0  0  0  0
  3  7  1  0  0  0  0
  4  3  1  0  0  0  0
  5  4  2  0  0  0  0
  5  6  1  0  0  0  0
  6  1  2  0  0  0  0
  7 25  1  0  0  0  0
  8 35  1  0  0  0  0
  8  7  1  0  0  0  0
  8 36  1  0  0  0  0
  9 10  1  0  0  0  0
  9  6  1  0  0  0  0
 10 27  1  0  0  0  0
 11 10  1  0  0  0  0
 11 13  1  0  0  0  0
 12 11  2  0  0  0  0
 13 14  2  0  0  0  0
 13 18  1  0  0  0  0
 14 15  1  0  0  0  0
 15 30  1  0  0  0  0
 15 16  2  0  0  0  0
 16 19  1  0  0  0  0
 17 16  1  0  0  0  0
 17 31  1  0  0  0  0
 18 17  2  0  0  0  0
 19 20  2  0  0  0  0
 21 19  2  0  0  0  0
 22 34  1  0  0  0  0
 22 19  1  0  0  0  0
 24  4  1  0  0  0  0
 26  7  1  0  0  0  0
 28 10  1  0  0  0  0
 29 14  1  0  0  0  0
 32 18  1  0  0  0  0
 33 22  1  0  0  0  0
 37  8  1  0  0  0  0
M  END