1j_fix.pdb
 OpenBabel09161415133D

 31 32  0  0  0  0  0  0  0  0999 V2000
   -1.4790    7.6830   14.3790 N   0  0  0  0  0  0  0  0  0  0  0  0
   -1.4180    7.8330   13.0180 C   0  0  0  0  0  0  0  0  0  0  0  0
   -1.1600    8.9920   12.3710 N   0  0  0  0  0  0  0  0  0  0  0  0
   -0.9880   10.1100   13.1510 C   0  0  0  0  0  0  0  0  0  0  0  0
   -0.9810   10.0090   14.5590 C   0  0  0  0  0  0  0  0  0  0  0  0
   -1.3000    8.7590   15.1460 C   0  0  0  0  0  0  0  0  0  0  0  0
   -1.5940    6.5000   11.9640 S   0  0  0  0  0  0  0  0  0  0  0  0
   -2.1290    5.1910   13.1300 C   0  0  0  0  0  0  0  0  0  0  0  0
   -3.6070    5.3290   13.5370 C   0  0  0  0  0  0  0  0  0  0  0  0
   -4.3230    6.2820   13.1760 O   0  0  0  0  0  0  0  0  0  0  0  0
   -4.2050    4.2530   14.3930 C   0  0  0  0  0  0  0  0  0  0  0  0
   -3.4050    3.1720   14.8040 C   0  0  0  0  0  0  0  0  0  0  0  0
   -3.9480    2.1640   15.5630 C   0  0  0  0  0  0  0  0  0  0  0  0
   -5.3020    2.2080   15.8730 C   0  0  0  0  0  0  0  0  0  0  0  0
   -6.1250    3.2320   15.4790 C   0  0  0  0  0  0  0  0  0  0  0  0
   -5.5450    4.2850   14.7680 C   0  0  0  0  0  0  0  0  0  0  0  0
   -5.9470    0.8670   16.8390 S   0  0  0  0  0  0  0  0  0  0  0  0
   -5.3920    1.0640   18.1650 O   0  0  0  0  0  0  0  0  0  0  0  0
   -7.4020    0.9580   16.7000 O   0  0  0  0  0  0  0  0  0  0  0  0
   -5.3270   -0.5120   16.2250 N   0  0  0  0  0  0  0  0  0  0  0  0
   -0.8630   11.0320   12.7040 H   0  0  0  0  0  0  0  0  0  0  0  0
   -0.7490   10.8250   15.1460 H   0  0  0  0  0  0  0  0  0  0  0  0
   -1.3940    8.6810   16.1710 H   0  0  0  0  0  0  0  0  0  0  0  0
   -1.5110    5.2110   14.0030 H   0  0  0  0  0  0  0  0  0  0  0  0
   -2.0260    4.2540   12.6240 H   0  0  0  0  0  0  0  0  0  0  0  0
   -2.4090    3.1360   14.5350 H   0  0  0  0  0  0  0  0  0  0  0  0
   -3.3590    1.3860   15.8980 H   0  0  0  0  0  0  0  0  0  0  0  0
   -7.1330    3.2250   15.6990 H   0  0  0  0  0  0  0  0  0  0  0  0
   -6.1210    5.1030   14.5160 H   0  0  0  0  0  0  0  0  0  0  0  0
   -5.7050   -0.6690   15.2910 H   0  0  0  0  0  0  0  0  0  0  0  0
   -5.5490   -1.3000   16.8330 H   0  0  0  0  0  0  0  0  0  0  0  0
  1  6  2  0  0  0  0
  2  1  1  0  0  0  0
  3  2  2  0  0  0  0
  3  4  1  0  0  0  0
  4  5  2  0  0  0  0
  5 22  1  0  0  0  0
  5  6  1  0  0  0  0
  6 23  1  0  0  0  0
  7  2  1  0  0  0  0
  7  8  1  0  0  0  0
  8  9  1  0  0  0  0
  8 24  1  0  0  0  0
  9 11  1  0  0  0  0
 10  9  2  0  0  0  0
 11 16  2  0  0  0  0
 11 12  1  0  0  0  0
 12 13  2  0  0  0  0
 13 14  1  0  0  0  0
 13 27  1  0  0  0  0
 14 17  1  0  0  0  0
 15 28  1  0  0  0  0
 15 14  2  0  0  0  0
 16 15  1  0  0  0  0
 17 18  2  0  0  0  0
 19 17  2  0  0  0  0
 20 31  1  0  0  0  0
 20 17  1  0  0  0  0
 21  4  1  0  0  0  0
 25  8  1  0  0  0  0
 26 12  1  0  0  0  0
 29 16  1  0  0  0  0
 30 20  1  0  0  0  0
M  END