2a_fix.pdb
 OpenBabel09161415133D

 35 36  0  0  0  0  0  0  0  0999 V2000
   -4.4690    4.4660   15.5360 C   0  0  0  0  0  0  0  0  0  0  0  0
   -4.9200    2.1130   15.8550 C   0  0  0  0  0  0  0  0  0  0  0  0
   -3.9170    1.8000   14.9250 C   0  0  0  0  0  0  0  0  0  0  0  0
   -6.4190    3.9350   17.2790 Cl  0  0  0  0  0  0  0  0  0  0  0  0
   -5.1980    3.4480   16.1610 C   0  0  0  0  0  0  0  0  0  0  0  0
   -5.8270    0.8260   16.6510 S   0  0  0  0  0  0  0  0  0  0  0  0
   -7.1910    0.8640   16.1820 O   0  0  0  0  0  0  0  0  0  0  0  0
   -5.2020   -0.6040   16.0110 N   0  0  0  0  0  0  0  0  0  0  0  0
   -5.4560    0.7890   18.0450 O   0  0  0  0  0  0  0  0  0  0  0  0
   -3.4720    4.1570   14.6010 C   0  0  0  0  0  0  0  0  0  0  0  0
   -3.1940    2.8200   14.2990 C   0  0  0  0  0  0  0  0  0  0  0  0
   -2.7250    5.2770   13.9670 C   0  0  0  0  0  0  0  0  0  0  0  0
   -2.5570    6.3030   14.6230 O   0  0  0  0  0  0  0  0  0  0  0  0
   -2.1950    5.0710   12.5590 C   0  0  0  0  0  0  0  0  0  0  0  0
   -2.2220    6.5980   11.5810 S   0  0  0  0  0  0  0  0  0  0  0  0
   -3.9710    6.9040   11.4860 C   0  0  0  0  0  0  0  0  0  0  0  0
   -4.8230    6.0490   12.0750 N   0  0  0  0  0  0  0  0  0  0  0  0
   -6.1130    6.3780   11.9550 C   0  0  0  0  0  0  0  0  0  0  0  0
   -6.9720    5.5290   12.5780 O   0  0  0  0  0  0  0  0  0  0  0  0
   -6.6050    7.4620   11.2810 C   0  0  0  0  0  0  0  0  0  0  0  0
   -5.6550    8.2600   10.6900 C   0  0  0  0  0  0  0  0  0  0  0  0
   -4.3360    7.9910   10.7830 N   0  0  0  0  0  0  0  0  0  0  0  0
   -6.0600    9.4710    9.9070 C   0  0  0  0  0  0  0  0  0  0  0  0
   -4.6760    5.5090   15.7740 H   0  0  0  0  0  0  0  0  0  0  0  0
   -3.6780    0.7670   14.6820 H   0  0  0  0  0  0  0  0  0  0  0  0
   -5.9560   -1.1040   15.5350 H   0  0  0  0  0  0  0  0  0  0  0  0
   -4.7860   -1.1470   16.7710 H   0  0  0  0  0  0  0  0  0  0  0  0
   -2.4070    2.5470   13.6010 H   0  0  0  0  0  0  0  0  0  0  0  0
   -1.1580    4.7280   12.6380 H   0  0  0  0  0  0  0  0  0  0  0  0
   -2.7670    4.3090   12.0230 H   0  0  0  0  0  0  0  0  0  0  0  0
   -7.6650    7.6660   11.2250 H   0  0  0  0  0  0  0  0  0  0  0  0
   -5.1810    9.9990    9.5230 H   0  0  0  0  0  0  0  0  0  0  0  0
   -6.6230   10.1630   10.5410 H   0  0  0  0  0  0  0  0  0  0  0  0
   -6.6810    9.1790    9.0540 H   0  0  0  0  0  0  0  0  0  0  0  0
   -6.3580    4.8960   12.9860 H   0  0  0  0  0  0  0  0  0  0  0  0
  1 24  1  0  0  0  0
  1  5  2  0  0  0  0
  2  5  1  0  0  0  0
  2  6  1  0  0  0  0
  3  2  2  0  0  0  0
  5  4  1  0  0  0  0
  6  9  2  0  0  0  0
  7  6  2  0  0  0  0
  8  6  1  0  0  0  0
  8 27  1  0  0  0  0
 10  1  1  0  0  0  0
 11 10  2  0  0  0  0
 11  3  1  0  0  0  0
 12 10  1  0  0  0  0
 12 13  2  0  0  0  0
 14 29  1  0  0  0  0
 14 12  1  0  0  0  0
 15 14  1  0  0  0  0
 16 15  1  0  0  0  0
 16 17  2  0  0  0  0
 18 17  1  0  0  0  0
 18 19  1  0  0  0  0
 19 35  1  0  0  0  0
 20 18  2  0  0  0  0
 21 22  2  0  0  0  0
 21 20  1  0  0  0  0
 22 16  1  0  0  0  0
 23 33  1  0  0  0  0
 23 21  1  0  0  0  0
 25  3  1  0  0  0  0
 26  8  1  0  0  0  0
 28 11  1  0  0  0  0
 30 14  1  0  0  0  0
 31 20  1  0  0  0  0
 32 23  1  0  0  0  0
 34 23  1  0  0  0  0
M  END