2d_fix.pdb
 OpenBabel09161415133D

 44 45  0  0  0  0  0  0  0  0999 V2000
   -4.4100    4.4520   15.5840 C   0  0  0  0  0  0  0  0  0  0  0  0
   -4.9060    2.1060   15.8790 C   0  0  0  0  0  0  0  0  0  0  0  0
   -3.9100    1.7830   14.9450 C   0  0  0  0  0  0  0  0  0  0  0  0
   -6.3690    3.9400   17.3230 Cl  0  0  0  0  0  0  0  0  0  0  0  0
   -5.1580    3.4420   16.2000 C   0  0  0  0  0  0  0  0  0  0  0  0
   -5.8440    0.8280   16.6530 S   0  0  0  0  0  0  0  0  0  0  0  0
   -7.1960    0.8810   16.1500 O   0  0  0  0  0  0  0  0  0  0  0  0
   -5.2170   -0.6080   16.0290 N   0  0  0  0  0  0  0  0  0  0  0  0
   -5.5090    0.7870   18.0560 O   0  0  0  0  0  0  0  0  0  0  0  0
   -3.4240    4.1340   14.6420 C   0  0  0  0  0  0  0  0  0  0  0  0
   -3.1700    2.7960   14.3280 C   0  0  0  0  0  0  0  0  0  0  0  0
   -2.6650    5.2480   14.0100 C   0  0  0  0  0  0  0  0  0  0  0  0
   -2.4780    6.2680   14.6690 O   0  0  0  0  0  0  0  0  0  0  0  0
   -2.1480    5.0450   12.5960 C   0  0  0  0  0  0  0  0  0  0  0  0
   -2.2050    6.5720   11.6180 S   0  0  0  0  0  0  0  0  0  0  0  0
   -3.9590    6.8470   11.5320 C   0  0  0  0  0  0  0  0  0  0  0  0
   -4.7940    5.9710   12.1110 N   0  0  0  0  0  0  0  0  0  0  0  0
   -6.0860    6.2800   11.9910 C   0  0  0  0  0  0  0  0  0  0  0  0
   -6.9340    5.4070   12.5970 O   0  0  0  0  0  0  0  0  0  0  0  0
   -6.5960    7.3640   11.3270 C   0  0  0  0  0  0  0  0  0  0  0  0
   -5.6680    8.1940   10.7360 C   0  0  0  0  0  0  0  0  0  0  0  0
   -4.3450    7.9330   10.8390 N   0  0  0  0  0  0  0  0  0  0  0  0
   -6.0960    9.4280    9.9340 C   0  0  0  0  0  0  0  0  0  0  0  0
   -4.5980    5.4970   15.8320 H   0  0  0  0  0  0  0  0  0  0  0  0
   -3.6920    0.7490   14.6880 H   0  0  0  0  0  0  0  0  0  0  0  0
   -5.9640   -1.1020   15.5360 H   0  0  0  0  0  0  0  0  0  0  0  0
   -4.8250   -1.1540   16.8000 H   0  0  0  0  0  0  0  0  0  0  0  0
   -2.3890    2.5160   13.6240 H   0  0  0  0  0  0  0  0  0  0  0  0
   -1.1070    4.7140   12.6650 H   0  0  0  0  0  0  0  0  0  0  0  0
   -2.7160    4.2750   12.0660 H   0  0  0  0  0  0  0  0  0  0  0  0
   -7.6630    7.5340   11.2780 H   0  0  0  0  0  0  0  0  0  0  0  0
   -4.8770   10.1910    9.3690 C   0  0  0  0  0  0  0  0  0  0  0  0
   -6.8830   10.3990   10.8360 C   0  0  0  0  0  0  0  0  0  0  0  0
   -6.9770    8.9990    8.7440 C   0  0  0  0  0  0  0  0  0  0  0  0
   -6.3120    4.7730   12.9910 H   0  0  0  0  0  0  0  0  0  0  0  0
   -6.2870   10.7040   11.7050 H   0  0  0  0  0  0  0  0  0  0  0  0
   -7.8090    9.9510   11.2130 H   0  0  0  0  0  0  0  0  0  0  0  0
   -7.1630   11.3070   10.2880 H   0  0  0  0  0  0  0  0  0  0  0  0
   -6.4500    8.2860    8.0990 H   0  0  0  0  0  0  0  0  0  0  0  0
   -7.2580    9.8620    8.1290 H   0  0  0  0  0  0  0  0  0  0  0  0
   -7.9060    8.5200    9.0730 H   0  0  0  0  0  0  0  0  0  0  0  0
   -4.2160   10.5420   10.1700 H   0  0  0  0  0  0  0  0  0  0  0  0
   -5.1920   11.0690    8.7940 H   0  0  0  0  0  0  0  0  0  0  0  0
   -4.2830    9.5580    8.7000 H   0  0  0  0  0  0  0  0  0  0  0  0
  1 24  1  0  0  0  0
  1  5  2  0  0  0  0
  2  5  1  0  0  0  0
  2  6  1  0  0  0  0
  3  2  2  0  0  0  0
  5  4  1  0  0  0  0
  6  9  2  0  0  0  0
  7  6  2  0  0  0  0
  8  6  1  0  0  0  0
  8 27  1  0  0  0  0
 10  1  1  0  0  0  0
 11 10  2  0  0  0  0
 11  3  1  0  0  0  0
 12 10  1  0  0  0  0
 12 13  2  0  0  0  0
 14 29  1  0  0  0  0
 14 12  1  0  0  0  0
 15 14  1  0  0  0  0
 16 15  1  0  0  0  0
 16 17  2  0  0  0  0
 18 17  1  0  0  0  0
 18 19  1  0  0  0  0
 19 35  1  0  0  0  0
 20 18  2  0  0  0  0
 21 22  2  0  0  0  0
 21 20  1  0  0  0  0
 22 16  1  0  0  0  0
 23 21  1  0  0  0  0
 23 33  1  0  0  0  0
 25  3  1  0  0  0  0
 26  8  1  0  0  0  0
 28 11  1  0  0  0  0
 30 14  1  0  0  0  0
 31 20  1  0  0  0  0
 32 23  1  0  0  0  0
 32 42  1  0  0  0  0
 33 37  1  0  0  0  0
 33 36  1  0  0  0  0
 34 41  1  0  0  0  0
 34 23  1  0  0  0  0
 38 33  1  0  0  0  0
 39 34  1  0  0  0  0
 40 34  1  0  0  0  0
 43 32  1  0  0  0  0
 44 32  1  0  0  0  0
M  END