2e_fix.pdb
 OpenBabel09161415133D

 41 42  0  0  0  0  0  0  0  0999 V2000
   -4.3000    4.4250   15.5900 C   0  0  0  0  0  0  0  0  0  0  0  0
   -4.8480    2.0930   15.9170 C   0  0  0  0  0  0  0  0  0  0  0  0
   -3.8580    1.7370   14.9900 C   0  0  0  0  0  0  0  0  0  0  0  0
   -6.2640    3.9790   17.3410 Cl  0  0  0  0  0  0  0  0  0  0  0  0
   -5.0670    3.4390   16.2220 C   0  0  0  0  0  0  0  0  0  0  0  0
   -5.8250    0.8460   16.6940 S   0  0  0  0  0  0  0  0  0  0  0  0
   -7.1750    0.9420   16.1940 O   0  0  0  0  0  0  0  0  0  0  0  0
   -5.2460   -0.6080   16.0670 N   0  0  0  0  0  0  0  0  0  0  0  0
   -5.4870    0.7960   18.0960 O   0  0  0  0  0  0  0  0  0  0  0  0
   -3.3270    4.0740   14.6450 C   0  0  0  0  0  0  0  0  0  0  0  0
   -3.0980    2.7250   14.3570 C   0  0  0  0  0  0  0  0  0  0  0  0
   -2.5700    5.1640   13.9660 C   0  0  0  0  0  0  0  0  0  0  0  0
   -2.4160    6.2260   14.5650 O   0  0  0  0  0  0  0  0  0  0  0  0
   -2.0250    4.8890   12.5740 C   0  0  0  0  0  0  0  0  0  0  0  0
   -2.0730    6.3520   11.5020 S   0  0  0  0  0  0  0  0  0  0  0  0
   -3.8230    6.5570   11.2890 C   0  0  0  0  0  0  0  0  0  0  0  0
   -4.6720    5.9680   12.1510 N   0  0  0  0  0  0  0  0  0  0  0  0
   -5.9700    6.2780   11.9910 C   0  0  0  0  0  0  0  0  0  0  0  0
   -6.7760    5.7110   12.9250 O   0  0  0  0  0  0  0  0  0  0  0  0
   -6.4620    7.1110   11.0190 C   0  0  0  0  0  0  0  0  0  0  0  0
   -5.5250    7.5880   10.1380 C   0  0  0  0  0  0  0  0  0  0  0  0
   -4.2030    7.3450   10.2650 N   0  0  0  0  0  0  0  0  0  0  0  0
   -4.4660    5.4760   15.8260 H   0  0  0  0  0  0  0  0  0  0  0  0
   -3.6630    0.6950   14.7460 H   0  0  0  0  0  0  0  0  0  0  0  0
   -6.0070   -1.0750   15.5680 H   0  0  0  0  0  0  0  0  0  0  0  0
   -4.8760   -1.1700   16.8370 H   0  0  0  0  0  0  0  0  0  0  0  0
   -2.3270    2.4140   13.6560 H   0  0  0  0  0  0  0  0  0  0  0  0
   -0.9830    4.5720   12.6820 H   0  0  0  0  0  0  0  0  0  0  0  0
   -2.5790    4.0890   12.0760 H   0  0  0  0  0  0  0  0  0  0  0  0
   -7.8810    7.4210   10.8880 C   0  0  0  0  0  0  0  0  0  0  0  0
   -6.1580    5.1670   13.4390 H   0  0  0  0  0  0  0  0  0  0  0  0
   -5.8010    8.2100    9.2910 H   0  0  0  0  0  0  0  0  0  0  0  0
   -8.6720    6.5310   10.6040 O   0  0  0  0  0  0  0  0  0  0  0  0
   -8.2710    8.7100   11.0550 O   0  0  0  0  0  0  0  0  0  0  0  0
   -7.3770    9.8030   11.3580 C   0  0  0  0  0  0  0  0  0  0  0  0
   -8.1790   10.9170   12.0020 C   0  0  0  0  0  0  0  0  0  0  0  0
   -6.9530   10.1610   10.4140 H   0  0  0  0  0  0  0  0  0  0  0  0
   -6.5760    9.4940   12.0360 H   0  0  0  0  0  0  0  0  0  0  0  0
   -9.0740   11.1480   11.4150 H   0  0  0  0  0  0  0  0  0  0  0  0
   -7.5730   11.8230   12.1000 H   0  0  0  0  0  0  0  0  0  0  0  0
   -8.5170   10.6150   12.9980 H   0  0  0  0  0  0  0  0  0  0  0  0
  1 23  1  0  0  0  0
  1  5  2  0  0  0  0
  2  5  1  0  0  0  0
  2  6  1  0  0  0  0
  3  2  2  0  0  0  0
  5  4  1  0  0  0  0
  6  9  2  0  0  0  0
  7  6  2  0  0  0  0
  8  6  1  0  0  0  0
  8 26  1  0  0  0  0
 10  1  1  0  0  0  0
 11 10  2  0  0  0  0
 11  3  1  0  0  0  0
 12 13  2  0  0  0  0
 12 10  1  0  0  0  0
 14 28  1  0  0  0  0
 14 12  1  0  0  0  0
 15 14  1  0  0  0  0
 16 15  1  0  0  0  0
 16 17  2  0  0  0  0
 18 17  1  0  0  0  0
 18 19  1  0  0  0  0
 19 31  1  0  0  0  0
 20 18  2  0  0  0  0
 21 22  2  0  0  0  0
 21 20  1  0  0  0  0
 22 16  1  0  0  0  0
 24  3  1  0  0  0  0
 25  8  1  0  0  0  0
 27 11  1  0  0  0  0
 29 14  1  0  0  0  0
 30 20  1  0  0  0  0
 30 34  1  0  0  0  0
 32 21  1  0  0  0  0
 33 30  2  0  0  0  0
 34 35  1  0  0  0  0
 35 36  1  0  0  0  0
 35 38  1  0  0  0  0
 36 40  1  0  0  0  0
 36 41  1  0  0  0  0
 37 35  1  0  0  0  0
 39 36  1  0  0  0  0
M  END