2g_fix.pdb
 OpenBabel09161415133D

 37 38  0  0  0  0  0  0  0  0999 V2000
   -5.3490    0.8620   18.0370 O   0  0  0  0  0  0  0  0  0  0  0  0
   -1.1500    8.2110   14.7860 C   0  0  0  0  0  0  0  0  0  0  0  0
   -4.1310    3.9760   14.0180 C   0  0  0  0  0  0  0  0  0  0  0  0
   -5.6090    3.3240   15.8420 C   0  0  0  0  0  0  0  0  0  0  0  0
   -6.7360    3.8460   17.0400 Cl  0  0  0  0  0  0  0  0  0  0  0  0
   -5.0730    4.3070   15.0020 C   0  0  0  0  0  0  0  0  0  0  0  0
   -3.7260    2.6440   13.8770 C   0  0  0  0  0  0  0  0  0  0  0  0
   -4.2680    1.6560   14.7060 C   0  0  0  0  0  0  0  0  0  0  0  0
   -5.2100    1.9940   15.6870 C   0  0  0  0  0  0  0  0  0  0  0  0
   -5.9110    0.7420   16.7130 S   0  0  0  0  0  0  0  0  0  0  0  0
   -5.2870   -0.7070   16.1150 N   0  0  0  0  0  0  0  0  0  0  0  0
   -7.3270    0.6530   16.4480 O   0  0  0  0  0  0  0  0  0  0  0  0
   -3.6220    5.0620   13.1280 C   0  0  0  0  0  0  0  0  0  0  0  0
   -4.3380    6.0480   12.9680 O   0  0  0  0  0  0  0  0  0  0  0  0
   -2.2590    4.8660   12.4850 C   0  0  0  0  0  0  0  0  0  0  0  0
   -1.7530    6.2490   11.4280 S   0  0  0  0  0  0  0  0  0  0  0  0
   -1.5390    7.5280   12.6390 C   0  0  0  0  0  0  0  0  0  0  0  0
   -1.4640    8.7820   12.1590 N   0  0  0  0  0  0  0  0  0  0  0  0
   -1.2380    9.7570   13.0560 C   0  0  0  0  0  0  0  0  0  0  0  0
   -1.0650    9.5350   14.4050 C   0  0  0  0  0  0  0  0  0  0  0  0
   -1.3720    7.1910   13.9300 N   0  0  0  0  0  0  0  0  0  0  0  0
   -1.0310    7.9150   15.8240 H   0  0  0  0  0  0  0  0  0  0  0  0
   -5.3910    5.3440   15.1120 H   0  0  0  0  0  0  0  0  0  0  0  0
   -3.0160    2.3380   13.1140 H   0  0  0  0  0  0  0  0  0  0  0  0
   -3.9480    0.6250   14.5640 H   0  0  0  0  0  0  0  0  0  0  0  0
   -6.0650   -1.2800   15.7790 H   0  0  0  0  0  0  0  0  0  0  0  0
   -4.7510   -1.1630   16.8570 H   0  0  0  0  0  0  0  0  0  0  0  0
   -1.5040    4.6780   13.2550 H   0  0  0  0  0  0  0  0  0  0  0  0
   -2.3080    3.9950   11.8240 H   0  0  0  0  0  0  0  0  0  0  0  0
   -1.1920   10.7580   12.6340 H   0  0  0  0  0  0  0  0  0  0  0  0
   -0.7830   10.6430   15.3710 C   0  0  0  0  0  0  0  0  0  0  0  0
   -0.9090   10.2860   16.4000 H   0  0  0  0  0  0  0  0  0  0  0  0
   -1.5210   11.4420   15.2300 H   0  0  0  0  0  0  0  0  0  0  0  0
    0.6220   11.2050   15.2050 C   0  0  0  0  0  0  0  0  0  0  0  0
    1.3790   10.4240   15.3390 H   0  0  0  0  0  0  0  0  0  0  0  0
    0.8070   11.9900   15.9450 H   0  0  0  0  0  0  0  0  0  0  0  0
    0.7640   11.6410   14.2100 H   0  0  0  0  0  0  0  0  0  0  0  0
  2 22  1  0  0  0  0
  3  6  1  0  0  0  0
  4  5  1  0  0  0  0
  6 23  1  0  0  0  0
  6  4  2  0  0  0  0
  7  3  2  0  0  0  0
  7  8  1  0  0  0  0
  8  9  2  0  0  0  0
  9  4  1  0  0  0  0
  9 10  1  0  0  0  0
 10  1  2  0  0  0  0
 11 10  1  0  0  0  0
 11 27  1  0  0  0  0
 12 10  2  0  0  0  0
 13  3  1  0  0  0  0
 14 13  2  0  0  0  0
 15 13  1  0  0  0  0
 15 28  1  0  0  0  0
 16 15  1  0  0  0  0
 16 17  1  0  0  0  0
 17 21  1  0  0  0  0
 18 17  2  0  0  0  0
 18 19  1  0  0  0  0
 19 20  2  0  0  0  0
 20  2  1  0  0  0  0
 20 31  1  0  0  0  0
 21  2  2  0  0  0  0
 24  7  1  0  0  0  0
 25  8  1  0  0  0  0
 26 11  1  0  0  0  0
 29 15  1  0  0  0  0
 30 19  1  0  0  0  0
 31 32  1  0  0  0  0
 33 31  1  0  0  0  0
 34 35  1  0  0  0  0
 34 31  1  0  0  0  0
 34 36  1  0  0  0  0
 37 34  1  0  0  0  0
M  END