3i_fix.pdb
 OpenBabel09161415133D

 43 44  0  0  0  0  0  0  0  0999 V2000
   -0.7010    4.9540   11.0930 N   0  0  0  0  0  0  0  0  0  0  0  0
   -1.4340    4.0910   11.8110 C   0  0  0  0  0  0  0  0  0  0  0  0
   -1.8840    4.3260   13.0560 N   0  0  0  0  0  0  0  0  0  0  0  0
   -1.6030    5.5390   13.5780 C   0  0  0  0  0  0  0  0  0  0  0  0
   -0.8890    6.5190   12.9190 C   0  0  0  0  0  0  0  0  0  0  0  0
   -0.4480    6.1460   11.6640 C   0  0  0  0  0  0  0  0  0  0  0  0
   -1.7910    2.5280   11.0460 S   0  0  0  0  0  0  0  0  0  0  0  0
   -3.0940    1.9150   12.1510 C   0  0  0  0  0  0  0  0  0  0  0  0
   -4.2950    2.8440   12.1940 C   0  0  0  0  0  0  0  0  0  0  0  0
   -4.7530    3.4280   11.2150 O   0  0  0  0  0  0  0  0  0  0  0  0
   -0.5490    7.8740   13.4710 C   0  0  0  0  0  0  0  0  0  0  0  0
   -1.2790    8.2820   14.7570 C   0  0  0  0  0  0  0  0  0  0  0  0
   -4.9640    3.0450   13.5060 C   0  0  0  0  0  0  0  0  0  0  0  0
   -5.1400    1.9900   14.4060 C   0  0  0  0  0  0  0  0  0  0  0  0
   -5.7730    2.2240   15.6380 C   0  0  0  0  0  0  0  0  0  0  0  0
   -6.2180    3.5070   15.9700 C   0  0  0  0  0  0  0  0  0  0  0  0
   -6.0490    4.5530   15.0560 C   0  0  0  0  0  0  0  0  0  0  0  0
   -5.4340    4.3220   13.8240 C   0  0  0  0  0  0  0  0  0  0  0  0
   -6.0290    0.8940   16.7660 S   0  0  0  0  0  0  0  0  0  0  0  0
   -5.1050    1.0380   17.8650 O   0  0  0  0  0  0  0  0  0  0  0  0
   -7.4470    0.6830   16.9300 O   0  0  0  0  0  0  0  0  0  0  0  0
   -5.5000   -0.4790   15.9400 N   0  0  0  0  0  0  0  0  0  0  0  0
   -1.9940    5.6880   14.5790 H   0  0  0  0  0  0  0  0  0  0  0  0
    0.1450    6.8220   11.0510 H   0  0  0  0  0  0  0  0  0  0  0  0
   -2.6660    1.7700   13.1480 H   0  0  0  0  0  0  0  0  0  0  0  0
   -3.4350    0.9410   11.7860 H   0  0  0  0  0  0  0  0  0  0  0  0
   -0.7720    8.6210   12.6980 H   0  0  0  0  0  0  0  0  0  0  0  0
    0.5330    7.8950   13.6450 H   0  0  0  0  0  0  0  0  0  0  0  0
   -2.3620    8.1840   14.6100 H   0  0  0  0  0  0  0  0  0  0  0  0
   -0.9890    9.7230   15.1870 C   0  0  0  0  0  0  0  0  0  0  0  0
   -1.0080    7.6020   15.5750 H   0  0  0  0  0  0  0  0  0  0  0  0
   -4.8030    0.9910   14.1420 H   0  0  0  0  0  0  0  0  0  0  0  0
   -6.3970    5.5560   15.2960 H   0  0  0  0  0  0  0  0  0  0  0  0
   -5.3100    5.1410   13.1170 H   0  0  0  0  0  0  0  0  0  0  0  0
   -6.2950   -1.1110   15.8210 H   0  0  0  0  0  0  0  0  0  0  0  0
   -4.7370   -0.9040   16.4710 H   0  0  0  0  0  0  0  0  0  0  0  0
   -1.2800   10.4160   14.3890 H   0  0  0  0  0  0  0  0  0  0  0  0
    0.4650    9.9640   15.5620 C   0  0  0  0  0  0  0  0  0  0  0  0
   -1.6160    9.9580   16.0550 H   0  0  0  0  0  0  0  0  0  0  0  0
    1.1240    9.8730   14.6930 H   0  0  0  0  0  0  0  0  0  0  0  0
    0.7980    9.2540   16.3250 H   0  0  0  0  0  0  0  0  0  0  0  0
    0.5870   10.9750   15.9630 H   0  0  0  0  0  0  0  0  0  0  0  0
   -6.6680    3.6810   16.8820 H   0  0  0  0  0  0  0  0  0  0  0  0
  1  6  2  0  0  0  0
  1  2  1  0  0  0  0
  2  3  2  0  0  0  0
  3  4  1  0  0  0  0
  4 23  1  0  0  0  0
  5 11  1  0  0  0  0
  5  4  2  0  0  0  0
  6  5  1  0  0  0  0
  7  2  1  0  0  0  0
  7  8  1  0  0  0  0
  8  9  1  0  0  0  0
  8 25  1  0  0  0  0
  9 13  1  0  0  0  0
 10  9  2  0  0  0  0
 11 28  1  0  0  0  0
 11 12  1  0  0  0  0
 12 30  1  0  0  0  0
 12 31  1  0  0  0  0
 13 18  2  0  0  0  0
 13 14  1  0  0  0  0
 14 15  2  0  0  0  0
 15 16  1  0  0  0  0
 15 19  1  0  0  0  0
 16 43  1  0  0  0  0
 17 33  1  0  0  0  0
 17 16  2  0  0  0  0
 18 17  1  0  0  0  0
 19 21  2  0  0  0  0
 19 20  2  0  0  0  0
 22 36  1  0  0  0  0
 22 19  1  0  0  0  0
 24  6  1  0  0  0  0
 26  8  1  0  0  0  0
 27 11  1  0  0  0  0
 29 12  1  0  0  0  0
 30 38  1  0  0  0  0
 30 39  1  0  0  0  0
 32 14  1  0  0  0  0
 34 18  1  0  0  0  0
 35 22  1  0  0  0  0
 37 30  1  0  0  0  0
 38 42  1  0  0  0  0
 38 41  1  0  0  0  0
 40 38  1  0  0  0  0
M  END