4e_fix.pdb
 OpenBabel09161415133D

 41 42  0  0  0  0  0  0  0  0999 V2000
   -1.6690    4.8290    9.9520 N   0  0  0  0  0  0  0  0  0  0  0  0
   -1.8460    4.0020   11.0000 C   0  0  0  0  0  0  0  0  0  0  0  0
   -1.7340    4.3640   12.2930 N   0  0  0  0  0  0  0  0  0  0  0  0
   -1.4410    5.6570   12.5040 C   0  0  0  0  0  0  0  0  0  0  0  0
   -1.2480    6.5880   11.5130 C   0  0  0  0  0  0  0  0  0  0  0  0
   -1.4020    6.1210   10.2340 C   0  0  0  0  0  0  0  0  0  0  0  0
   -2.1850    2.3010   10.6250 S   0  0  0  0  0  0  0  0  0  0  0  0
   -3.2690    1.8840   12.0230 C   0  0  0  0  0  0  0  0  0  0  0  0
   -4.4600    2.8200   12.1330 C   0  0  0  0  0  0  0  0  0  0  0  0
   -4.9650    3.4180   11.1860 O   0  0  0  0  0  0  0  0  0  0  0  0
   -1.3040    5.9710   13.8170 O   0  0  0  0  0  0  0  0  0  0  0  0
   -5.0480    3.0260   13.4810 C   0  0  0  0  0  0  0  0  0  0  0  0
   -5.1660    1.9770   14.3980 C   0  0  0  0  0  0  0  0  0  0  0  0
   -5.7340    2.2180   15.6620 C   0  0  0  0  0  0  0  0  0  0  0  0
   -6.1600    3.5030   16.0120 C   0  0  0  0  0  0  0  0  0  0  0  0
   -6.0460    4.5420   15.0810 C   0  0  0  0  0  0  0  0  0  0  0  0
   -5.5040    4.3040   13.8170 C   0  0  0  0  0  0  0  0  0  0  0  0
   -5.9340    0.8860   16.8010 S   0  0  0  0  0  0  0  0  0  0  0  0
   -7.3200    0.7870   17.1900 O   0  0  0  0  0  0  0  0  0  0  0  0
   -4.8350    0.9190   17.7350 O   0  0  0  0  0  0  0  0  0  0  0  0
   -5.6760   -0.5030   15.8760 N   0  0  0  0  0  0  0  0  0  0  0  0
   -6.8010    3.9110   17.5610 Cl  0  0  0  0  0  0  0  0  0  0  0  0
   -0.9550    7.9880   11.7870 C   0  0  0  0  0  0  0  0  0  0  0  0
   -2.6760    1.9070   12.9430 H   0  0  0  0  0  0  0  0  0  0  0  0
   -3.6420    0.8660   11.8750 H   0  0  0  0  0  0  0  0  0  0  0  0
   -4.8410    0.9770   14.1260 H   0  0  0  0  0  0  0  0  0  0  0  0
   -5.4310    5.1210   13.0990 H   0  0  0  0  0  0  0  0  0  0  0  0
   -6.5460   -1.0430   15.8640 H   0  0  0  0  0  0  0  0  0  0  0  0
   -4.9000   -1.0270   16.2860 H   0  0  0  0  0  0  0  0  0  0  0  0
   -1.5130    5.1270   14.2560 H   0  0  0  0  0  0  0  0  0  0  0  0
   -1.3080    6.7740    9.3700 H   0  0  0  0  0  0  0  0  0  0  0  0
   -1.8340    8.7160   12.2270 O   0  0  0  0  0  0  0  0  0  0  0  0
    0.2840    8.4450   11.4770 O   0  0  0  0  0  0  0  0  0  0  0  0
    1.3630    7.5920   11.0400 C   0  0  0  0  0  0  0  0  0  0  0  0
    2.6700    8.3160   11.2990 C   0  0  0  0  0  0  0  0  0  0  0  0
    1.2500    7.4130    9.9660 H   0  0  0  0  0  0  0  0  0  0  0  0
    1.3610    6.6410   11.5820 H   0  0  0  0  0  0  0  0  0  0  0  0
    2.6710    9.3020   10.8220 H   0  0  0  0  0  0  0  0  0  0  0  0
    3.5170    7.7370   10.9200 H   0  0  0  0  0  0  0  0  0  0  0  0
    2.8090    8.4810   12.3720 H   0  0  0  0  0  0  0  0  0  0  0  0
   -6.3810    5.5470   15.3330 H   0  0  0  0  0  0  0  0  0  0  0  0
  1  6  2  0  0  0  0
  1  2  1  0  0  0  0
  2  3  2  0  0  0  0
  3  4  1  0  0  0  0
  4 11  1  0  0  0  0
  5 23  1  0  0  0  0
  5  4  2  0  0  0  0
  6  5  1  0  0  0  0
  7  2  1  0  0  0  0
  7  8  1  0  0  0  0
  8  9  1  0  0  0  0
  8 24  1  0  0  0  0
  9 12  1  0  0  0  0
 10  9  2  0  0  0  0
 11 30  1  0  0  0  0
 12 17  2  0  0  0  0
 12 13  1  0  0  0  0
 13 14  2  0  0  0  0
 14 15  1  0  0  0  0
 14 18  1  0  0  0  0
 15 22  1  0  0  0  0
 16 41  1  0  0  0  0
 16 15  2  0  0  0  0
 17 16  1  0  0  0  0
 18 19  2  0  0  0  0
 18 20  2  0  0  0  0
 21 29  1  0  0  0  0
 21 18  1  0  0  0  0
 23 32  2  0  0  0  0
 25  8  1  0  0  0  0
 26 13  1  0  0  0  0
 27 17  1  0  0  0  0
 28 21  1  0  0  0  0
 31  6  1  0  0  0  0
 33 23  1  0  0  0  0
 34 35  1  0  0  0  0
 34 33  1  0  0  0  0
 34 37  1  0  0  0  0
 35 40  1  0  0  0  0
 36 34  1  0  0  0  0
 38 35  1  0  0  0  0
 39 35  1  0  0  0  0
M  END