4h_fix.pdb
 OpenBabel09161415133D

 40 41  0  0  0  0  0  0  0  0999 V2000
   -0.5870    4.9570   11.1530 N   0  0  0  0  0  0  0  0  0  0  0  0
   -1.4020    4.1310   11.8250 C   0  0  0  0  0  0  0  0  0  0  0  0
   -1.9410    4.4060   13.0250 N   0  0  0  0  0  0  0  0  0  0  0  0
   -1.6700    5.6220   13.5420 C   0  0  0  0  0  0  0  0  0  0  0  0
   -0.8720    6.5640   12.9290 C   0  0  0  0  0  0  0  0  0  0  0  0
   -0.3420    6.1530   11.7210 C   0  0  0  0  0  0  0  0  0  0  0  0
   -1.7670    2.5730   11.0540 S   0  0  0  0  0  0  0  0  0  0  0  0
   -3.0580    1.9460   12.1690 C   0  0  0  0  0  0  0  0  0  0  0  0
   -4.2710    2.8580   12.2150 C   0  0  0  0  0  0  0  0  0  0  0  0
   -4.7490    3.4280   11.2360 O   0  0  0  0  0  0  0  0  0  0  0  0
   -0.5620    7.9300   13.4710 C   0  0  0  0  0  0  0  0  0  0  0  0
   -1.2560    8.3080   14.7840 C   0  0  0  0  0  0  0  0  0  0  0  0
   -4.9310    3.0560   13.5310 C   0  0  0  0  0  0  0  0  0  0  0  0
   -5.1250    1.9930   14.4180 C   0  0  0  0  0  0  0  0  0  0  0  0
   -5.7550    2.2230   15.6520 C   0  0  0  0  0  0  0  0  0  0  0  0
   -6.1720    3.5120   16.0030 C   0  0  0  0  0  0  0  0  0  0  0  0
   -5.9800    4.5660   15.1030 C   0  0  0  0  0  0  0  0  0  0  0  0
   -5.3750    4.3390   13.8660 C   0  0  0  0  0  0  0  0  0  0  0  0
   -6.0520    0.8820   16.7570 S   0  0  0  0  0  0  0  0  0  0  0  0
   -5.1450    0.9940   17.8740 O   0  0  0  0  0  0  0  0  0  0  0  0
   -6.9160    3.8980   17.5120 Cl  0  0  0  0  0  0  0  0  0  0  0  0
   -7.4770    0.6950   16.8940 O   0  0  0  0  0  0  0  0  0  0  0  0
   -5.5320   -0.4880   15.9210 N   0  0  0  0  0  0  0  0  0  0  0  0
   -2.1480    5.8060   14.4990 H   0  0  0  0  0  0  0  0  0  0  0  0
    0.3170    6.7980   11.1450 H   0  0  0  0  0  0  0  0  0  0  0  0
   -2.6230    1.8110   13.1640 H   0  0  0  0  0  0  0  0  0  0  0  0
   -3.3860    0.9660   11.8080 H   0  0  0  0  0  0  0  0  0  0  0  0
   -0.8400    8.6690   12.7070 H   0  0  0  0  0  0  0  0  0  0  0  0
    0.5240    8.0020   13.6130 H   0  0  0  0  0  0  0  0  0  0  0  0
   -2.3450    8.2630   14.6620 H   0  0  0  0  0  0  0  0  0  0  0  0
   -0.8690    9.7070   15.2390 C   0  0  0  0  0  0  0  0  0  0  0  0
   -0.9870    7.5950   15.5730 H   0  0  0  0  0  0  0  0  0  0  0  0
   -4.8080    0.9920   14.1390 H   0  0  0  0  0  0  0  0  0  0  0  0
   -6.3060    5.5730   15.3580 H   0  0  0  0  0  0  0  0  0  0  0  0
   -5.2350    5.1640   13.1690 H   0  0  0  0  0  0  0  0  0  0  0  0
   -6.3370   -1.1030   15.7770 H   0  0  0  0  0  0  0  0  0  0  0  0
   -4.7880   -0.9350   16.4610 H   0  0  0  0  0  0  0  0  0  0  0  0
   -1.1540   10.4560   14.4940 H   0  0  0  0  0  0  0  0  0  0  0  0
    0.2100    9.7800   15.4070 H   0  0  0  0  0  0  0  0  0  0  0  0
   -1.3760    9.9520   16.1780 H   0  0  0  0  0  0  0  0  0  0  0  0
  1  6  2  0  0  0  0
  1  2  1  0  0  0  0
  2  3  2  0  0  0  0
  3  4  1  0  0  0  0
  4 24  1  0  0  0  0
  5 11  1  0  0  0  0
  5  4  2  0  0  0  0
  6  5  1  0  0  0  0
  7  2  1  0  0  0  0
  7  8  1  0  0  0  0
  8  9  1  0  0  0  0
  8 26  1  0  0  0  0
  9 13  1  0  0  0  0
 10  9  2  0  0  0  0
 11 29  1  0  0  0  0
 11 12  1  0  0  0  0
 12 31  1  0  0  0  0
 12 32  1  0  0  0  0
 13 18  2  0  0  0  0
 13 14  1  0  0  0  0
 14 15  2  0  0  0  0
 15 16  1  0  0  0  0
 15 19  1  0  0  0  0
 16 21  1  0  0  0  0
 17 34  1  0  0  0  0
 17 16  2  0  0  0  0
 18 17  1  0  0  0  0
 19 22  2  0  0  0  0
 19 20  2  0  0  0  0
 23 37  1  0  0  0  0
 23 19  1  0  0  0  0
 25  6  1  0  0  0  0
 27  8  1  0  0  0  0
 28 11  1  0  0  0  0
 30 12  1  0  0  0  0
 31 39  1  0  0  0  0
 31 40  1  0  0  0  0
 33 14  1  0  0  0  0
 35 18  1  0  0  0  0
 36 23  1  0  0  0  0
 38 31  1  0  0  0  0
M  END