
  -ISIS-  09220613393D

 22 24  0  0  0  0  0  0  0  0999 V2000
   -0.0168    1.3870    0.0097 C   0  0  0  0  0  0  0  0  0  0  0  0
    0.0021   -0.0041    0.0020 C   0  0  0  0  0  0  0  0  0  0  0  0
    1.2403    1.9830    0.0009 C   0  0  0  0  0  0  0  0  0  0  0  0
   -1.2100    2.1306    0.0306 C   0  0  0  0  0  0  0  0  0  0  0  0
    1.4482   -0.4357   -0.0145 C   0  0  0  0  0  0  0  0  0  0  0  0
   -1.1914   -0.6587    0.0103 C   0  0  0  0  0  0  0  0  0  0  0  0
    2.2650    0.8750   -0.0155 C   0  0  0  0  0  0  0  0  0  0  0  0
    1.3021    3.3429    0.0081 C   0  0  0  0  0  0  0  0  0  0  0  0
   -2.4235    1.4232    0.0438 C   0  0  0  0  0  0  0  0  0  0  0  0
   -1.1097    3.5317    0.0374 C   0  0  0  0  0  0  0  0  0  0  0  0
   -2.3899    0.0589    0.0251 C   0  0  0  0  0  0  0  0  0  0  0  0
    0.1299    4.1026    0.0237 C   0  0  0  0  0  0  0  0  0  0  0  0
    1.6774   -1.0229    0.8747 H   0  0  0  0  0  0  0  0  0  0  0  0
    1.6598   -1.0132   -0.9144 H   0  0  0  0  0  0  0  0  0  0  0  0
   -1.2119   -1.7385    0.0049 H   0  0  0  0  0  0  0  0  0  0  0  0
    2.8759    0.9387   -0.9159 H   0  0  0  0  0  0  0  0  0  0  0  0
    2.8938    0.9289    0.8732 H   0  0  0  0  0  0  0  0  0  0  0  0
    2.2624    3.8370    0.0020 H   0  0  0  0  0  0  0  0  0  0  0  0
   -3.3664    1.9496    0.0598 H   0  0  0  0  0  0  0  0  0  0  0  0
   -1.9977    4.1462    0.0536 H   0  0  0  0  0  0  0  0  0  0  0  0
   -3.3228   -0.4853    0.0308 H   0  0  0  0  0  0  0  0  0  0  0  0
    0.2073    5.1798    0.0296 H   0  0  0  0  0  0  0  0  0  0  0  0
  1  2  1  0  0  0  0
  1  3  1  0  0  0  0
  1  4  2  0  0  0  0
  2  5  1  0  0  0  0
  2  6  2  0  0  0  0
  3  7  1  0  0  0  0
  3  8  2  0  0  0  0
  4  9  1  0  0  0  0
  4 10  1  0  0  0  0
  5  7  1  0  0  0  0
  5 13  1  0  0  0  0
  5 14  1  0  0  0  0
  6 11  1  0  0  0  0
  6 15  1  0  0  0  0
  7 16  1  0  0  0  0
  7 17  1  0  0  0  0
  8 12  1  0  0  0  0
  8 18  1  0  0  0  0
  9 11  2  0  0  0  0
  9 19  1  0  0  0  0
 10 12  2  0  0  0  0
 10 20  1  0  0  0  0
 11 21  1  0  0  0  0
 12 22  1  0  0  0  0
M  END
