
  -ISIS-  09220614113D

 30 33  0  0  0  0  0  0  0  0999 V2000
   -0.0179    1.4657    0.0101 C   0  0  0  0  0  0  0  0  0  0  0  0
    0.0021   -0.0041    0.0020 C   0  0  0  0  0  0  0  0  0  0  0  0
    1.2575    2.1843    0.0018 C   0  0  0  0  0  0  0  0  0  0  0  0
   -1.2159    2.1609    0.0196 C   0  0  0  0  0  0  0  0  0  0  0  0
    1.2421   -0.6767   -0.0135 C   0  0  0  0  0  0  0  0  0  0  0  0
   -1.1852   -0.7380    0.0090 C   0  0  0  0  0  0  0  0  0  0  0  0
    1.2754    3.5748    0.0086 C   0  0  0  0  0  0  0  0  0  0  0  0
    2.5054    1.4234   -0.0142 C   0  0  0  0  0  0  0  0  0  0  0  0
   -1.2039    3.5588    0.0266 C   0  0  0  0  0  0  0  0  0  0  0  0
    2.4915    0.0769   -0.0209 C   0  0  0  0  0  0  0  0  0  0  0  0
    1.2590   -2.0787   -0.0212 C   0  0  0  0  0  0  0  0  0  0  0  0
   -1.1356   -2.1137    0.0007 C   0  0  0  0  0  0  0  0  0  0  0  0
    0.0706    4.2811    0.0235 C   0  0  0  0  0  0  0  0  0  0  0  0
   -2.4032    4.2985    0.0355 C   0  0  0  0  0  0  0  0  0  0  0  0
    0.0857   -2.7752   -0.0137 C   0  0  0  0  0  0  0  0  0  0  0  0
    0.0506    5.6909    0.0302 C   0  0  0  0  0  0  0  0  0  0  0  0
   -2.3531    5.6564    0.0414 C   0  0  0  0  0  0  0  0  0  0  0  0
   -1.1405    6.3442    0.0442 C   0  0  0  0  0  0  0  0  0  0  0  0
   -2.1541    1.6260    0.0211 H   0  0  0  0  0  0  0  0  0  0  0  0
   -2.1378   -0.2293    0.0212 H   0  0  0  0  0  0  0  0  0  0  0  0
    2.2159    4.1056    0.0029 H   0  0  0  0  0  0  0  0  0  0  0  0
    3.4498    1.9474   -0.0208 H   0  0  0  0  0  0  0  0  0  0  0  0
    3.4292   -0.4590   -0.0320 H   0  0  0  0  0  0  0  0  0  0  0  0
    2.2007   -2.6073   -0.0335 H   0  0  0  0  0  0  0  0  0  0  0  0
   -2.0533   -2.6830    0.0060 H   0  0  0  0  0  0  0  0  0  0  0  0
   -3.3558    3.7897    0.0372 H   0  0  0  0  0  0  0  0  0  0  0  0
    0.1069   -3.8549   -0.0205 H   0  0  0  0  0  0  0  0  0  0  0  0
    0.9760    6.2477    0.0247 H   0  0  0  0  0  0  0  0  0  0  0  0
   -3.2761    6.2171    0.0481 H   0  0  0  0  0  0  0  0  0  0  0  0
   -1.1482    7.4241    0.0496 H   0  0  0  0  0  0  0  0  0  0  0  0
  1  2  2  0  0  0  0
  1  3  1  0  0  0  0
  1  4  1  0  0  0  0
  2  5  1  0  0  0  0
  2  6  1  0  0  0  0
  3  7  1  0  0  0  0
  3  8  2  0  0  0  0
  4  9  2  0  0  0  0
  4 19  1  0  0  0  0
  5 10  2  0  0  0  0
  5 11  1  0  0  0  0
  6 12  2  0  0  0  0
  6 20  1  0  0  0  0
  7 13  2  0  0  0  0
  7 21  1  0  0  0  0
  8 10  1  0  0  0  0
  8 22  1  0  0  0  0
  9 14  1  0  0  0  0
  9 13  1  0  0  0  0
 10 23  1  0  0  0  0
 11 15  2  0  0  0  0
 11 24  1  0  0  0  0
 12 15  1  0  0  0  0
 12 25  1  0  0  0  0
 13 16  1  0  0  0  0
 14 17  2  0  0  0  0
 14 26  1  0  0  0  0
 15 27  1  0  0  0  0
 16 18  2  0  0  0  0
 16 28  1  0  0  0  0
 17 18  1  0  0  0  0
 17 29  1  0  0  0  0
 18 30  1  0  0  0  0
M  END
