
  -ISIS-  09220615483D

 26 29  0  0  0  0  0  0  0  0999 V2000
   -0.0156    1.3011    0.0092 C   0  0  0  0  0  0  0  0  0  0  0  0
    0.0021   -0.0041    0.0020 C   0  0  0  0  0  0  0  0  0  0  0  0
    1.2459    2.0641    0.0012 C   0  0  0  0  0  0  0  0  0  0  0  0
   -1.2974    2.0295    0.0192 C   0  0  0  0  0  0  0  0  0  0  0  0
    1.2838   -0.7325   -0.0141 C   0  0  0  0  0  0  0  0  0  0  0  0
   -1.2594   -0.7671    0.0095 C   0  0  0  0  0  0  0  0  0  0  0  0
    2.4593    1.3816   -0.0143 C   0  0  0  0  0  0  0  0  0  0  0  0
    1.1774    3.4554    0.0093 C   0  0  0  0  0  0  0  0  0  0  0  0
   -2.4918    1.3142    0.0215 C   0  0  0  0  0  0  0  0  0  0  0  0
   -1.2666    3.4222    0.0265 C   0  0  0  0  0  0  0  0  0  0  0  0
    2.4782   -0.0172   -0.0215 C   0  0  0  0  0  0  0  0  0  0  0  0
    1.2531   -2.1251   -0.0219 C   0  0  0  0  0  0  0  0  0  0  0  0
   -2.4728   -0.0846    0.0253 C   0  0  0  0  0  0  0  0  0  0  0  0
   -1.1908   -2.1584    0.0007 C   0  0  0  0  0  0  0  0  0  0  0  0
   -0.0536    4.1050    0.0249 C   0  0  0  0  0  0  0  0  0  0  0  0
    0.0402   -2.8080   -0.0150 C   0  0  0  0  0  0  0  0  0  0  0  0
    3.3878    1.9332   -0.0201 H   0  0  0  0  0  0  0  0  0  0  0  0
    2.0882    4.0357    0.0036 H   0  0  0  0  0  0  0  0  0  0  0  0
   -3.4350    1.8403    0.0293 H   0  0  0  0  0  0  0  0  0  0  0  0
   -2.1928    3.9775    0.0338 H   0  0  0  0  0  0  0  0  0  0  0  0
    3.4214   -0.5433   -0.0333 H   0  0  0  0  0  0  0  0  0  0  0  0
    2.1793   -2.6804   -0.0338 H   0  0  0  0  0  0  0  0  0  0  0  0
   -3.4013   -0.6362    0.0310 H   0  0  0  0  0  0  0  0  0  0  0  0
   -2.1016   -2.7388    0.0063 H   0  0  0  0  0  0  0  0  0  0  0  0
   -0.0682    5.1849    0.0311 H   0  0  0  0  0  0  0  0  0  0  0  0
    0.0548   -3.8879   -0.0218 H   0  0  0  0  0  0  0  0  0  0  0  0
  1  2  2  0  0  0  0
  1  3  1  0  0  0  0
  1  4  1  0  0  0  0
  2  5  1  0  0  0  0
  2  6  1  0  0  0  0
  3  7  2  0  0  0  0
  3  8  1  0  0  0  0
  4  9  1  0  0  0  0
  4 10  2  0  0  0  0
  5 11  2  0  0  0  0
  5 12  1  0  0  0  0
  6 13  1  0  0  0  0
  6 14  2  0  0  0  0
  7 11  1  0  0  0  0
  7 17  1  0  0  0  0
  8 15  2  0  0  0  0
  8 18  1  0  0  0  0
  9 13  2  0  0  0  0
  9 19  1  0  0  0  0
 10 15  1  0  0  0  0
 10 20  1  0  0  0  0
 11 21  1  0  0  0  0
 12 16  2  0  0  0  0
 12 22  1  0  0  0  0
 13 23  1  0  0  0  0
 14 16  1  0  0  0  0
 14 24  1  0  0  0  0
 15 25  1  0  0  0  0
 16 26  1  0  0  0  0
M  END
