
  -ISIS-  09220615493D

 30 33  0  0  0  0  0  0  0  0999 V2000
   -0.0175    1.4382    0.0099 C   0  0  0  0  0  0  0  0  0  0  0  0
    0.0021   -0.0041    0.0020 C   0  0  0  0  0  0  0  0  0  0  0  0
    1.2166    2.1732    0.0021 C   0  0  0  0  0  0  0  0  0  0  0  0
   -1.2457    2.1025    0.0194 C   0  0  0  0  0  0  0  0  0  0  0  0
    1.2555   -0.7054   -0.0127 C   0  0  0  0  0  0  0  0  0  0  0  0
   -1.2074   -0.7019    0.0093 C   0  0  0  0  0  0  0  0  0  0  0  0
    2.4752    1.4689   -0.0136 C   0  0  0  0  0  0  0  0  0  0  0  0
    1.2178    3.5696    0.0091 C   0  0  0  0  0  0  0  0  0  0  0  0
   -2.4156    1.3771    0.0210 C   0  0  0  0  0  0  0  0  0  0  0  0
    2.4947    0.0327   -0.0196 C   0  0  0  0  0  0  0  0  0  0  0  0
    1.2942   -2.1012   -0.0200 C   0  0  0  0  0  0  0  0  0  0  0  0
   -2.3967   -0.0089    0.0239 C   0  0  0  0  0  0  0  0  0  0  0  0
    3.6651    2.1997   -0.0215 C   0  0  0  0  0  0  0  0  0  0  0  0
    2.4131    4.2524    0.0009 C   0  0  0  0  0  0  0  0  0  0  0  0
    3.7038   -0.6657   -0.0334 C   0  0  0  0  0  0  0  0  0  0  0  0
    2.5074   -2.7515   -0.0337 C   0  0  0  0  0  0  0  0  0  0  0  0
    3.6225    3.5756   -0.0142 C   0  0  0  0  0  0  0  0  0  0  0  0
    3.6981   -2.0422   -0.0402 C   0  0  0  0  0  0  0  0  0  0  0  0
   -1.2777    3.1820    0.0258 H   0  0  0  0  0  0  0  0  0  0  0  0
   -1.2098   -1.7819    0.0031 H   0  0  0  0  0  0  0  0  0  0  0  0
    0.2841    4.1121    0.0205 H   0  0  0  0  0  0  0  0  0  0  0  0
   -3.3628    1.8958    0.0283 H   0  0  0  0  0  0  0  0  0  0  0  0
    0.3753   -2.6687   -0.0147 H   0  0  0  0  0  0  0  0  0  0  0  0
   -3.3293   -0.5534    0.0291 H   0  0  0  0  0  0  0  0  0  0  0  0
    4.6157    1.6871   -0.0329 H   0  0  0  0  0  0  0  0  0  0  0  0
    2.4084    5.3324    0.0059 H   0  0  0  0  0  0  0  0  0  0  0  0
    4.6402   -0.1277   -0.0390 H   0  0  0  0  0  0  0  0  0  0  0  0
    2.5317   -3.8313   -0.0389 H   0  0  0  0  0  0  0  0  0  0  0  0
    4.5456    4.1362   -0.0200 H   0  0  0  0  0  0  0  0  0  0  0  0
    4.6359   -2.5777   -0.0513 H   0  0  0  0  0  0  0  0  0  0  0  0
  1  2  2  0  0  0  0
  1  3  1  0  0  0  0
  1  4  1  0  0  0  0
  2  5  1  0  0  0  0
  2  6  1  0  0  0  0
  3  7  1  0  0  0  0
  3  8  2  0  0  0  0
  4  9  2  0  0  0  0
  4 19  1  0  0  0  0
  5 10  2  0  0  0  0
  5 11  1  0  0  0  0
  6 12  2  0  0  0  0
  6 20  1  0  0  0  0
  7 13  2  0  0  0  0
  7 10  1  0  0  0  0
  8 14  1  0  0  0  0
  8 21  1  0  0  0  0
  9 12  1  0  0  0  0
  9 22  1  0  0  0  0
 10 15  1  0  0  0  0
 11 16  2  0  0  0  0
 11 23  1  0  0  0  0
 12 24  1  0  0  0  0
 13 17  1  0  0  0  0
 13 25  1  0  0  0  0
 14 17  2  0  0  0  0
 14 26  1  0  0  0  0
 15 18  2  0  0  0  0
 15 27  1  0  0  0  0
 16 18  1  0  0  0  0
 16 28  1  0  0  0  0
 17 29  1  0  0  0  0
 18 30  1  0  0  0  0
M  END
