5_db.pdb
 OpenBabel09221412193D

 36 37  0  0  0  0  0  0  0  0999 V2000
   -2.1990   -1.3070    1.4180 H   0  0  0  0  0  0  0  0  0  0  0  0
   -1.4450   -0.6370    1.0180 C   0  0  0  0  0  0  0  0  0  0  0  0
   -0.8420    0.3480    1.8020 C   0  0  0  0  0  0  0  0  0  0  0  0
   -1.0920    0.5870    3.1250 O   0  0  0  0  0  0  0  0  0  0  0  0
    0.1090    1.1970    1.2280 C   0  0  0  0  0  0  0  0  0  0  0  0
    0.5640    1.9800    1.8320 H   0  0  0  0  0  0  0  0  0  0  0  0
    0.4710    1.0600   -0.1140 C   0  0  0  0  0  0  0  0  0  0  0  0
    1.1960    1.7470   -0.5430 H   0  0  0  0  0  0  0  0  0  0  0  0
   -0.1150    0.0540   -0.8870 C   0  0  0  0  0  0  0  0  0  0  0  0
    0.2570   -0.1390   -2.3070 C   0  0  0  0  0  0  0  0  0  0  0  0
   -1.0880   -0.7790   -0.3280 C   0  0  0  0  0  0  0  0  0  0  0  0
   -1.5670   -1.5440   -0.9370 H   0  0  0  0  0  0  0  0  0  0  0  0
   -0.6100   -0.3820   -3.1400 O   0  0  0  0  0  0  0  0  0  0  0  0
    1.7040   -0.0850   -2.6660 C   0  0  0  0  0  0  0  0  0  0  0  0
    2.6540   -0.9270   -1.8480 C   0  0  0  0  0  0  0  0  0  0  0  0
    2.0070    0.6270   -3.7670 C   0  0  0  0  0  0  0  0  0  0  0  0
    2.1080   -1.6550   -1.2350 H   0  0  0  0  0  0  0  0  0  0  0  0
    3.3330   -0.0620   -0.9300 O   0  0  0  0  0  0  0  0  0  0  0  0
    3.6740   -1.7010   -2.6730 C   0  0  0  0  0  0  0  0  0  0  0  0
   -2.0450   -0.2540    3.7630 C   0  0  0  0  0  0  0  0  0  0  0  0
   -2.1220    0.0610    4.8090 H   0  0  0  0  0  0  0  0  0  0  0  0
   -1.7170   -1.2990    3.7540 H   0  0  0  0  0  0  0  0  0  0  0  0
   -3.0350   -0.1450    3.3090 H   0  0  0  0  0  0  0  0  0  0  0  0
    1.2420    1.1560   -4.3290 H   0  0  0  0  0  0  0  0  0  0  0  0
    3.0240    0.6970   -4.1380 H   0  0  0  0  0  0  0  0  0  0  0  0
    3.3300   -2.8960   -3.3340 C   0  0  0  0  0  0  0  0  0  0  0  0
    4.9920   -1.2240   -2.8180 C   0  0  0  0  0  0  0  0  0  0  0  0
    4.2690   -3.5890   -4.1050 C   0  0  0  0  0  0  0  0  0  0  0  0
    5.9310   -1.9170   -3.5850 C   0  0  0  0  0  0  0  0  0  0  0  0
    5.5640   -3.0960   -4.2250 C   0  0  0  0  0  0  0  0  0  0  0  0
    1.7440   -3.5760   -3.2240 Cl  0  0  0  0  0  0  0  0  0  0  0  0
    5.2960   -0.2980   -2.3300 H   0  0  0  0  0  0  0  0  0  0  0  0
    6.9420   -1.5280   -3.6780 H   0  0  0  0  0  0  0  0  0  0  0  0
    3.9900   -4.5100   -4.6100 H   0  0  0  0  0  0  0  0  0  0  0  0
    6.7210   -3.9490   -5.1700 Cl  0  0  0  0  0  0  0  0  0  0  0  0
    2.9340   -0.2110   -0.0560 H   0  0  0  0  0  0  0  0  0  0  0  0
  1  2  1  0  0  0  0
  2  3  2  0  0  0  0
  2 11  1  0  0  0  0
  3  4  1  0  0  0  0
  3  5  1  0  0  0  0
  4 20  1  0  0  0  0
  5  6  1  0  0  0  0
  5  7  2  0  0  0  0
  7  8  1  0  0  0  0
  7  9  1  0  0  0  0
  9 10  1  0  0  0  0
  9 11  2  0  0  0  0
 10 13  2  0  0  0  0
 10 14  1  0  0  0  0
 11 12  1  0  0  0  0
 14 15  1  0  0  0  0
 14 16  2  0  0  0  0
 15 17  1  0  0  0  0
 15 18  1  0  0  0  0
 15 19  1  0  0  0  0
 16 24  1  0  0  0  0
 16 25  1  0  0  0  0
 18 36  1  0  0  0  0
 19 26  2  0  0  0  0
 19 27  1  0  0  0  0
 20 21  1  0  0  0  0
 20 22  1  0  0  0  0
 20 23  1  0  0  0  0
 26 28  1  0  0  0  0
 26 31  1  0  0  0  0
 27 29  2  0  0  0  0
 27 32  1  0  0  0  0
 28 30  2  0  0  0  0
 28 34  1  0  0  0  0
 29 30  1  0  0  0  0
 29 33  1  0  0  0  0
 30 35  1  0  0  0  0
M  END