5_dh.pdb
 OpenBabel09221412193D

 38 39  0  0  0  0  0  0  0  0999 V2000
   -2.2600   -1.2340    1.5090 H   0  0  0  0  0  0  0  0  0  0  0  0
   -1.4940   -0.5990    1.0750 C   0  0  0  0  0  0  0  0  0  0  0  0
   -0.8940    0.4320    1.7990 C   0  0  0  0  0  0  0  0  0  0  0  0
   -1.1590    0.7620    3.0980 O   0  0  0  0  0  0  0  0  0  0  0  0
    0.0690    1.2340    1.1790 C   0  0  0  0  0  0  0  0  0  0  0  0
    0.5230    2.0530    1.7340 H   0  0  0  0  0  0  0  0  0  0  0  0
    0.4510    1.0000   -0.1440 C   0  0  0  0  0  0  0  0  0  0  0  0
    1.1890    1.6530   -0.6040 H   0  0  0  0  0  0  0  0  0  0  0  0
   -0.1290   -0.0540   -0.8560 C   0  0  0  0  0  0  0  0  0  0  0  0
    0.2700   -0.3700   -2.2500 C   0  0  0  0  0  0  0  0  0  0  0  0
   -1.1170   -0.8380   -0.2510 C   0  0  0  0  0  0  0  0  0  0  0  0
   -1.5940   -1.6430   -0.8090 H   0  0  0  0  0  0  0  0  0  0  0  0
   -0.5350   -0.8520   -3.0390 O   0  0  0  0  0  0  0  0  0  0  0  0
    1.6970   -0.1730   -2.6290 C   0  0  0  0  0  0  0  0  0  0  0  0
    2.7130   -0.9670   -1.8500 C   0  0  0  0  0  0  0  0  0  0  0  0
    1.9240    0.6020   -3.7040 C   0  0  0  0  0  0  0  0  0  0  0  0
    2.2200   -1.7500   -1.2580 H   0  0  0  0  0  0  0  0  0  0  0  0
    3.3610   -0.0900   -0.9290 O   0  0  0  0  0  0  0  0  0  0  0  0
    3.7460   -1.6730   -2.7190 C   0  0  0  0  0  0  0  0  0  0  0  0
   -2.0870   -0.0600    3.7960 C   0  0  0  0  0  0  0  0  0  0  0  0
   -2.1610    0.3150    4.8210 H   0  0  0  0  0  0  0  0  0  0  0  0
   -1.7390   -1.0970    3.8440 H   0  0  0  0  0  0  0  0  0  0  0  0
   -3.0830    0.0030    3.3450 H   0  0  0  0  0  0  0  0  0  0  0  0
    1.1120    1.0870   -4.2390 H   0  0  0  0  0  0  0  0  0  0  0  0
    2.9290    0.7640   -4.0790 H   0  0  0  0  0  0  0  0  0  0  0  0
    3.3710   -2.8220   -3.4400 C   0  0  0  0  0  0  0  0  0  0  0  0
    5.0670   -1.2060   -2.8340 C   0  0  0  0  0  0  0  0  0  0  0  0
    4.2930   -3.4950   -4.2470 C   0  0  0  0  0  0  0  0  0  0  0  0
    5.9960   -1.8710   -3.6380 C   0  0  0  0  0  0  0  0  0  0  0  0
    5.6050   -3.0170   -4.3400 C   0  0  0  0  0  0  0  0  0  0  0  0
    5.3800   -0.3130   -2.2940 H   0  0  0  0  0  0  0  0  0  0  0  0
    7.0110   -1.4850   -3.7030 H   0  0  0  0  0  0  0  0  0  0  0  0
    3.9730   -4.3810   -4.7920 H   0  0  0  0  0  0  0  0  0  0  0  0
    6.5790   -3.7220   -5.1820 N   0  0  0  0  0  0  0  0  0  0  0  0
    2.3490   -3.1980   -3.3820 H   0  0  0  0  0  0  0  0  0  0  0  0
    6.2040   -4.7520   -5.7600 O   0  0  0  0  0  0  0  0  0  0  0  0
    7.7220   -3.2480   -5.2640 O   0  0  0  0  0  0  0  0  0  0  0  0
    2.9730   -0.2620   -0.0550 H   0  0  0  0  0  0  0  0  0  0  0  0
  1  2  1  0  0  0  0
  2  3  2  0  0  0  0
  2 11  1  0  0  0  0
  3  4  1  0  0  0  0
  3  5  1  0  0  0  0
  4 20  1  0  0  0  0
  5  6  1  0  0  0  0
  5  7  2  0  0  0  0
  7  8  1  0  0  0  0
  7  9  1  0  0  0  0
  9 10  1  0  0  0  0
  9 11  2  0  0  0  0
 10 13  2  0  0  0  0
 10 14  1  0  0  0  0
 11 12  1  0  0  0  0
 14 15  1  0  0  0  0
 14 16  2  0  0  0  0
 15 17  1  0  0  0  0
 15 18  1  0  0  0  0
 15 19  1  0  0  0  0
 16 24  1  0  0  0  0
 16 25  1  0  0  0  0
 18 38  1  0  0  0  0
 19 26  2  0  0  0  0
 19 27  1  0  0  0  0
 20 21  1  0  0  0  0
 20 22  1  0  0  0  0
 20 23  1  0  0  0  0
 26 28  1  0  0  0  0
 26 35  1  0  0  0  0
 27 29  2  0  0  0  0
 27 31  1  0  0  0  0
 28 30  2  0  0  0  0
 28 33  1  0  0  0  0
 29 30  1  0  0  0  0
 29 32  1  0  0  0  0
 30 34  1  0  0  0  0
 34 36  2  0  0  0  0
 34 37  2  0  0  0  0
M  END