5db.pdb
 OpenBabel09221412193D

 48 50  0  0  0  0  0  0  0  0999 V2000
   -2.1740   -1.3050    1.4280 H   0  0  0  0  0  0  0  0  0  0  0  0
   -1.4160   -0.6350    1.0360 C   0  0  0  0  0  0  0  0  0  0  0  0
   -0.8010    0.3320    1.8340 C   0  0  0  0  0  0  0  0  0  0  0  0
   -1.0510    0.5580    3.1600 O   0  0  0  0  0  0  0  0  0  0  0  0
    0.1590    1.1780    1.2710 C   0  0  0  0  0  0  0  0  0  0  0  0
    0.6300    1.9410    1.8870 H   0  0  0  0  0  0  0  0  0  0  0  0
    0.5150    1.0570   -0.0740 C   0  0  0  0  0  0  0  0  0  0  0  0
    1.2480    1.7410   -0.4940 H   0  0  0  0  0  0  0  0  0  0  0  0
   -0.0830    0.0690   -0.8600 C   0  0  0  0  0  0  0  0  0  0  0  0
    0.2760   -0.0990   -2.2860 C   0  0  0  0  0  0  0  0  0  0  0  0
   -1.0630   -0.7620   -0.3120 C   0  0  0  0  0  0  0  0  0  0  0  0
   -1.5490   -1.5150   -0.9300 H   0  0  0  0  0  0  0  0  0  0  0  0
   -0.6060   -0.2490   -3.1240 O   0  0  0  0  0  0  0  0  0  0  0  0
    1.7250   -0.1210   -2.6550 C   0  0  0  0  0  0  0  0  0  0  0  0
    2.6310   -1.0210   -1.8380 C   0  0  0  0  0  0  0  0  0  0  0  0
    2.0540    0.5740   -3.7600 C   0  0  0  0  0  0  0  0  0  0  0  0
    2.0150   -1.7680   -1.3220 H   0  0  0  0  0  0  0  0  0  0  0  0
    3.2700   -0.1770   -0.8550 O   0  0  0  0  0  0  0  0  0  0  0  0
    3.6740   -1.7640   -2.6740 C   0  0  0  0  0  0  0  0  0  0  0  0
    3.4920   -0.7450    0.3550 C   0  0  0  0  0  0  0  0  0  0  0  0
    3.2450   -1.8990    0.6630 O   0  0  0  0  0  0  0  0  0  0  0  0
    4.0580    0.2580    1.2960 C   0  0  0  0  0  0  0  0  0  0  0  0
    4.1480   -0.0840    2.6520 C   0  0  0  0  0  0  0  0  0  0  0  0
    4.4950    1.5220    0.8740 C   0  0  0  0  0  0  0  0  0  0  0  0
   -2.0170   -0.2780    3.7840 C   0  0  0  0  0  0  0  0  0  0  0  0
   -2.0950    0.0260    4.8320 H   0  0  0  0  0  0  0  0  0  0  0  0
   -1.7050   -1.3270    3.7630 H   0  0  0  0  0  0  0  0  0  0  0  0
   -3.0040   -0.1490    3.3260 H   0  0  0  0  0  0  0  0  0  0  0  0
    4.6630    0.8270    3.5740 C   0  0  0  0  0  0  0  0  0  0  0  0
    5.0120    2.4300    1.8000 C   0  0  0  0  0  0  0  0  0  0  0  0
    5.0950    2.0830    3.1480 C   0  0  0  0  0  0  0  0  0  0  0  0
    5.3500    3.4100    1.4720 H   0  0  0  0  0  0  0  0  0  0  0  0
    4.4420    1.8150   -0.1720 H   0  0  0  0  0  0  0  0  0  0  0  0
    3.8100   -1.0610    2.9950 H   0  0  0  0  0  0  0  0  0  0  0  0
    4.7270    0.5580    4.6260 H   0  0  0  0  0  0  0  0  0  0  0  0
    5.4960    2.7920    3.8690 H   0  0  0  0  0  0  0  0  0  0  0  0
    1.3100    1.1410   -4.3130 H   0  0  0  0  0  0  0  0  0  0  0  0
    3.0650    0.5890   -4.1510 H   0  0  0  0  0  0  0  0  0  0  0  0
    3.3400   -2.9280   -3.3950 C   0  0  0  0  0  0  0  0  0  0  0  0
    4.9970   -1.2850   -2.7690 C   0  0  0  0  0  0  0  0  0  0  0  0
    4.2950   -3.5920   -4.1710 C   0  0  0  0  0  0  0  0  0  0  0  0
    5.9500   -1.9520   -3.5430 C   0  0  0  0  0  0  0  0  0  0  0  0
    5.5940   -3.1020   -4.2390 C   0  0  0  0  0  0  0  0  0  0  0  0
    1.7450   -3.5940   -3.3700 Cl  0  0  0  0  0  0  0  0  0  0  0  0
    5.3000   -0.3820   -2.2420 H   0  0  0  0  0  0  0  0  0  0  0  0
    6.9660   -1.5670   -3.5980 H   0  0  0  0  0  0  0  0  0  0  0  0
    4.0230   -4.4890   -4.7220 H   0  0  0  0  0  0  0  0  0  0  0  0
    6.7690   -3.9180   -5.1950 Cl  0  0  0  0  0  0  0  0  0  0  0  0
  1  2  1  0  0  0  0
  2  3  2  0  0  0  0
  2 11  1  0  0  0  0
  3  4  1  0  0  0  0
  3  5  1  0  0  0  0
  4 25  1  0  0  0  0
  5  6  1  0  0  0  0
  5  7  2  0  0  0  0
  7  8  1  0  0  0  0
  7  9  1  0  0  0  0
  9 10  1  0  0  0  0
  9 11  2  0  0  0  0
 10 13  2  0  0  0  0
 10 14  1  0  0  0  0
 11 12  1  0  0  0  0
 14 15  1  0  0  0  0
 14 16  2  0  0  0  0
 15 17  1  0  0  0  0
 15 18  1  0  0  0  0
 15 19  1  0  0  0  0
 16 37  1  0  0  0  0
 16 38  1  0  0  0  0
 18 20  1  0  0  0  0
 19 39  2  0  0  0  0
 19 40  1  0  0  0  0
 20 21  2  0  0  0  0
 20 22  1  0  0  0  0
 22 23  2  0  0  0  0
 22 24  1  0  0  0  0
 23 29  1  0  0  0  0
 23 34  1  0  0  0  0
 24 30  2  0  0  0  0
 24 33  1  0  0  0  0
 25 26  1  0  0  0  0
 25 27  1  0  0  0  0
 25 28  1  0  0  0  0
 29 31  2  0  0  0  0
 29 35  1  0  0  0  0
 30 31  1  0  0  0  0
 30 32  1  0  0  0  0
 31 36  1  0  0  0  0
 39 41  1  0  0  0  0
 39 44  1  0  0  0  0
 40 42  2  0  0  0  0
 40 45  1  0  0  0  0
 41 43  2  0  0  0  0
 41 47  1  0  0  0  0
 42 43  1  0  0  0  0
 42 46  1  0  0  0  0
 43 48  1  0  0  0  0
M  END