5de.pdb
 OpenBabel09221412193D

 53 54  0  0  0  0  0  0  0  0999 V2000
   -2.0760   -1.4540    1.4900 H   0  0  0  0  0  0  0  0  0  0  0  0
   -1.3650   -0.7690    1.0410 C   0  0  0  0  0  0  0  0  0  0  0  0
   -0.8690    0.3390    1.7320 C   0  0  0  0  0  0  0  0  0  0  0  0
   -1.1880    0.6950    3.0130 O   0  0  0  0  0  0  0  0  0  0  0  0
    0.0300    1.1990    1.0940 C   0  0  0  0  0  0  0  0  0  0  0  0
    0.4060    2.0710    1.6250 H   0  0  0  0  0  0  0  0  0  0  0  0
    0.4500    0.9500   -0.2150 C   0  0  0  0  0  0  0  0  0  0  0  0
    1.1390    1.6430   -0.6900 H   0  0  0  0  0  0  0  0  0  0  0  0
   -0.0240   -0.1770   -0.8920 C   0  0  0  0  0  0  0  0  0  0  0  0
    0.4090   -0.4910   -2.2750 C   0  0  0  0  0  0  0  0  0  0  0  0
   -0.9480   -1.0220   -0.2710 C   0  0  0  0  0  0  0  0  0  0  0  0
   -1.3390   -1.8880   -0.8030 H   0  0  0  0  0  0  0  0  0  0  0  0
   -0.3720   -0.9840   -3.0820 O   0  0  0  0  0  0  0  0  0  0  0  0
    1.8340   -0.2410   -2.6360 C   0  0  0  0  0  0  0  0  0  0  0  0
    2.8730   -1.0440   -1.8790 C   0  0  0  0  0  0  0  0  0  0  0  0
    2.0410    0.5880   -3.6730 C   0  0  0  0  0  0  0  0  0  0  0  0
    2.3680   -1.8930   -1.4000 H   0  0  0  0  0  0  0  0  0  0  0  0
    3.4220   -0.1400   -0.8940 O   0  0  0  0  0  0  0  0  0  0  0  0
    4.0320   -1.6320   -2.7600 C   0  0  0  0  0  0  0  0  0  0  0  0
    3.4620   -0.5840    0.3870 C   0  0  0  0  0  0  0  0  0  0  0  0
    3.1060   -1.6840    0.7780 O   0  0  0  0  0  0  0  0  0  0  0  0
    4.0490    0.4530    1.2760 C   0  0  0  0  0  0  0  0  0  0  0  0
    4.3600    0.0940    2.5940 C   0  0  0  0  0  0  0  0  0  0  0  0
    4.2960    1.7630    0.8410 C   0  0  0  0  0  0  0  0  0  0  0  0
   -2.0000   -0.2130    3.7470 C   0  0  0  0  0  0  0  0  0  0  0  0
   -2.1120    0.1840    4.7610 H   0  0  0  0  0  0  0  0  0  0  0  0
   -1.5250   -1.1960    3.8250 H   0  0  0  0  0  0  0  0  0  0  0  0
   -3.0000   -0.2900    3.3070 H   0  0  0  0  0  0  0  0  0  0  0  0
    4.9190    1.0310    3.4650 C   0  0  0  0  0  0  0  0  0  0  0  0
    4.8520    2.6980    1.7180 C   0  0  0  0  0  0  0  0  0  0  0  0
    5.1650    2.3310    3.0260 C   0  0  0  0  0  0  0  0  0  0  0  0
    5.0430    3.7140    1.3790 H   0  0  0  0  0  0  0  0  0  0  0  0
    4.0610    2.0700   -0.1740 H   0  0  0  0  0  0  0  0  0  0  0  0
    4.1700   -0.9180    2.9470 H   0  0  0  0  0  0  0  0  0  0  0  0
    5.1630    0.7450    4.4850 H   0  0  0  0  0  0  0  0  0  0  0  0
    5.6000    3.0600    3.7060 H   0  0  0  0  0  0  0  0  0  0  0  0
    1.2110    1.0690   -4.1860 H   0  0  0  0  0  0  0  0  0  0  0  0
    3.0360    0.8060   -4.0420 H   0  0  0  0  0  0  0  0  0  0  0  0
    3.4630   -2.6260   -3.8050 C   0  0  0  0  0  0  0  0  0  0  0  0
    5.1050   -2.2850   -1.8490 C   0  0  0  0  0  0  0  0  0  0  0  0
    4.5260   -0.7980   -3.2750 H   0  0  0  0  0  0  0  0  0  0  0  0
    3.4170   -3.6370   -3.3820 H   0  0  0  0  0  0  0  0  0  0  0  0
    4.2370   -2.6530   -5.1180 C   0  0  0  0  0  0  0  0  0  0  0  0
    2.4310   -2.3650   -4.0620 H   0  0  0  0  0  0  0  0  0  0  0  0
    4.6460   -3.0730   -1.2400 H   0  0  0  0  0  0  0  0  0  0  0  0
    5.4900   -1.5310   -1.1530 H   0  0  0  0  0  0  0  0  0  0  0  0
    6.3140   -2.8640   -2.5660 C   0  0  0  0  0  0  0  0  0  0  0  0
    6.0610   -3.7900   -3.0890 H   0  0  0  0  0  0  0  0  0  0  0  0
    7.0950   -3.1100   -1.8390 H   0  0  0  0  0  0  0  0  0  0  0  0
    6.7340   -2.1480   -3.2790 H   0  0  0  0  0  0  0  0  0  0  0  0
    5.2280   -3.0950   -5.0100 H   0  0  0  0  0  0  0  0  0  0  0  0
    4.3520   -1.6450   -5.5280 H   0  0  0  0  0  0  0  0  0  0  0  0
    3.6950   -3.2550   -5.8550 H   0  0  0  0  0  0  0  0  0  0  0  0
  1  2  1  0  0  0  0
  2  3  2  0  0  0  0
  2 11  1  0  0  0  0
  3  4  1  0  0  0  0
  3  5  1  0  0  0  0
  4 25  1  0  0  0  0
  5  6  1  0  0  0  0
  5  7  2  0  0  0  0
  7  8  1  0  0  0  0
  7  9  1  0  0  0  0
  9 10  1  0  0  0  0
  9 11  2  0  0  0  0
 10 13  2  0  0  0  0
 10 14  1  0  0  0  0
 11 12  1  0  0  0  0
 14 15  1  0  0  0  0
 14 16  2  0  0  0  0
 15 17  1  0  0  0  0
 15 18  1  0  0  0  0
 15 19  1  0  0  0  0
 16 37  1  0  0  0  0
 16 38  1  0  0  0  0
 18 20  1  0  0  0  0
 19 39  1  0  0  0  0
 19 40  1  0  0  0  0
 19 41  1  0  0  0  0
 20 21  2  0  0  0  0
 20 22  1  0  0  0  0
 22 23  2  0  0  0  0
 22 24  1  0  0  0  0
 23 29  1  0  0  0  0
 23 34  1  0  0  0  0
 24 30  2  0  0  0  0
 24 33  1  0  0  0  0
 25 26  1  0  0  0  0
 25 27  1  0  0  0  0
 25 28  1  0  0  0  0
 29 31  2  0  0  0  0
 29 35  1  0  0  0  0
 30 31  1  0  0  0  0
 30 32  1  0  0  0  0
 31 36  1  0  0  0  0
 39 42  1  0  0  0  0
 39 43  1  0  0  0  0
 39 44  1  0  0  0  0
 40 45  1  0  0  0  0
 40 46  1  0  0  0  0
 40 47  1  0  0  0  0
 43 51  1  0  0  0  0
 43 52  1  0  0  0  0
 43 53  1  0  0  0  0
 47 48  1  0  0  0  0
 47 49  1  0  0  0  0
 47 50  1  0  0  0  0
M  END