5di.pdb
 OpenBabel09221412193D

 48 50  0  0  0  0  0  0  0  0999 V2000
   -2.1930   -1.3240    1.4230 H   0  0  0  0  0  0  0  0  0  0  0  0
   -1.4290   -0.6630    1.0260 C   0  0  0  0  0  0  0  0  0  0  0  0
   -0.8190    0.3160    1.8120 C   0  0  0  0  0  0  0  0  0  0  0  0
   -1.0790    0.5660    3.1310 O   0  0  0  0  0  0  0  0  0  0  0  0
    0.1490    1.1480    1.2430 C   0  0  0  0  0  0  0  0  0  0  0  0
    0.6170    1.9210    1.8500 H   0  0  0  0  0  0  0  0  0  0  0  0
    0.5170    1.0030   -0.0970 C   0  0  0  0  0  0  0  0  0  0  0  0
    1.2570    1.6780   -0.5180 H   0  0  0  0  0  0  0  0  0  0  0  0
   -0.0760    0.0030   -0.8720 C   0  0  0  0  0  0  0  0  0  0  0  0
    0.3020   -0.1990   -2.2910 C   0  0  0  0  0  0  0  0  0  0  0  0
   -1.0630   -0.8160   -0.3170 C   0  0  0  0  0  0  0  0  0  0  0  0
   -1.5460   -1.5790   -0.9240 H   0  0  0  0  0  0  0  0  0  0  0  0
   -0.5560   -0.4460   -3.1310 O   0  0  0  0  0  0  0  0  0  0  0  0
    1.7520   -0.1470   -2.6500 C   0  0  0  0  0  0  0  0  0  0  0  0
    2.6830   -1.0280   -1.8440 C   0  0  0  0  0  0  0  0  0  0  0  0
    2.0640    0.6020   -3.7230 C   0  0  0  0  0  0  0  0  0  0  0  0
    2.0810   -1.7980   -1.3420 H   0  0  0  0  0  0  0  0  0  0  0  0
    3.2890   -0.1800   -0.8530 O   0  0  0  0  0  0  0  0  0  0  0  0
    3.7160   -1.7510   -2.6890 C   0  0  0  0  0  0  0  0  0  0  0  0
    3.6080   -0.7740    0.3210 C   0  0  0  0  0  0  0  0  0  0  0  0
    3.4610   -1.9560    0.5860 O   0  0  0  0  0  0  0  0  0  0  0  0
    4.1220    0.2400    1.2780 C   0  0  0  0  0  0  0  0  0  0  0  0
    4.1570   -0.0880    2.6390 C   0  0  0  0  0  0  0  0  0  0  0  0
    4.5680    1.5010    0.8580 C   0  0  0  0  0  0  0  0  0  0  0  0
   -2.0530   -0.2560    3.7630 C   0  0  0  0  0  0  0  0  0  0  0  0
   -2.1390    0.0690    4.8040 H   0  0  0  0  0  0  0  0  0  0  0  0
   -1.7420   -1.3050    3.7650 H   0  0  0  0  0  0  0  0  0  0  0  0
   -3.0350   -0.1340    3.2940 H   0  0  0  0  0  0  0  0  0  0  0  0
    4.6240    0.8400    3.5710 C   0  0  0  0  0  0  0  0  0  0  0  0
    5.0350    2.4260    1.7940 C   0  0  0  0  0  0  0  0  0  0  0  0
    5.0610    2.0950    3.1480 C   0  0  0  0  0  0  0  0  0  0  0  0
    5.3830    3.4030    1.4660 H   0  0  0  0  0  0  0  0  0  0  0  0
    4.5670    1.7730   -0.1950 H   0  0  0  0  0  0  0  0  0  0  0  0
    3.8160   -1.0640    2.9780 H   0  0  0  0  0  0  0  0  0  0  0  0
    4.6470    0.5840    4.6280 H   0  0  0  0  0  0  0  0  0  0  0  0
    5.4260    2.8160    3.8760 H   0  0  0  0  0  0  0  0  0  0  0  0
    1.3010    1.1560   -4.2650 H   0  0  0  0  0  0  0  0  0  0  0  0
    3.0810    0.6900   -4.0900 H   0  0  0  0  0  0  0  0  0  0  0  0
    3.3260   -2.8890   -3.4090 C   0  0  0  0  0  0  0  0  0  0  0  0
    5.0470   -1.3350   -2.8120 C   0  0  0  0  0  0  0  0  0  0  0  0
    4.2260   -3.5860   -4.2120 C   0  0  0  0  0  0  0  0  0  0  0  0
    5.9520   -2.0370   -3.6060 C   0  0  0  0  0  0  0  0  0  0  0  0
    5.5410   -3.1610   -4.3060 C   0  0  0  0  0  0  0  0  0  0  0  0
    2.0570   -3.3150   -3.3300 F   0  0  0  0  0  0  0  0  0  0  0  0
    5.4760   -0.2350   -2.1760 F   0  0  0  0  0  0  0  0  0  0  0  0
    7.2210   -1.6160   -3.7010 F   0  0  0  0  0  0  0  0  0  0  0  0
    3.8180   -4.6640   -4.8960 F   0  0  0  0  0  0  0  0  0  0  0  0
    6.4110   -3.8280   -5.0780 F   0  0  0  0  0  0  0  0  0  0  0  0
  1  2  1  0  0  0  0
  2  3  2  0  0  0  0
  2 11  1  0  0  0  0
  3  4  1  0  0  0  0
  3  5  1  0  0  0  0
  4 25  1  0  0  0  0
  5  6  1  0  0  0  0
  5  7  2  0  0  0  0
  7  8  1  0  0  0  0
  7  9  1  0  0  0  0
  9 10  1  0  0  0  0
  9 11  2  0  0  0  0
 10 13  2  0  0  0  0
 10 14  1  0  0  0  0
 11 12  1  0  0  0  0
 14 15  1  0  0  0  0
 14 16  2  0  0  0  0
 15 17  1  0  0  0  0
 15 18  1  0  0  0  0
 15 19  1  0  0  0  0
 16 37  1  0  0  0  0
 16 38  1  0  0  0  0
 18 20  1  0  0  0  0
 19 39  2  0  0  0  0
 19 40  1  0  0  0  0
 20 21  2  0  0  0  0
 20 22  1  0  0  0  0
 22 23  2  0  0  0  0
 22 24  1  0  0  0  0
 23 29  1  0  0  0  0
 23 34  1  0  0  0  0
 24 30  2  0  0  0  0
 24 33  1  0  0  0  0
 25 26  1  0  0  0  0
 25 27  1  0  0  0  0
 25 28  1  0  0  0  0
 29 31  2  0  0  0  0
 29 35  1  0  0  0  0
 30 31  1  0  0  0  0
 30 32  1  0  0  0  0
 31 36  1  0  0  0  0
 39 41  1  0  0  0  0
 39 44  1  0  0  0  0
 40 42  2  0  0  0  0
 40 45  1  0  0  0  0
 41 43  2  0  0  0  0
 41 47  1  0  0  0  0
 42 43  1  0  0  0  0
 42 46  1  0  0  0  0
 43 48  1  0  0  0  0
M  END