5dj.pdb
 OpenBabel09221412193D

 50 52  0  0  0  0  0  0  0  0999 V2000
   -2.1450   -1.3450    1.4080 H   0  0  0  0  0  0  0  0  0  0  0  0
   -1.3930   -0.6670    1.0180 C   0  0  0  0  0  0  0  0  0  0  0  0
   -0.7850    0.3020    1.8190 C   0  0  0  0  0  0  0  0  0  0  0  0
   -1.0350    0.5220    3.1450 O   0  0  0  0  0  0  0  0  0  0  0  0
    0.1700    1.1560    1.2580 C   0  0  0  0  0  0  0  0  0  0  0  0
    0.6360    1.9200    1.8780 H   0  0  0  0  0  0  0  0  0  0  0  0
    0.5250    1.0430   -0.0870 C   0  0  0  0  0  0  0  0  0  0  0  0
    1.2530    1.7330   -0.5060 H   0  0  0  0  0  0  0  0  0  0  0  0
   -0.0670    0.0540   -0.8750 C   0  0  0  0  0  0  0  0  0  0  0  0
    0.2920   -0.1020   -2.3010 C   0  0  0  0  0  0  0  0  0  0  0  0
   -1.0400   -0.7870   -0.3310 C   0  0  0  0  0  0  0  0  0  0  0  0
   -1.5180   -1.5430   -0.9510 H   0  0  0  0  0  0  0  0  0  0  0  0
   -0.5900   -0.2060   -3.1460 O   0  0  0  0  0  0  0  0  0  0  0  0
    1.7410   -0.1630   -2.6660 C   0  0  0  0  0  0  0  0  0  0  0  0
    2.6350   -1.0550   -1.8270 C   0  0  0  0  0  0  0  0  0  0  0  0
    2.0880    0.5000   -3.7850 C   0  0  0  0  0  0  0  0  0  0  0  0
    2.0180   -1.7660   -1.2720 H   0  0  0  0  0  0  0  0  0  0  0  0
    3.2880   -0.1860   -0.8730 O   0  0  0  0  0  0  0  0  0  0  0  0
    3.6570   -1.8370   -2.6580 C   0  0  0  0  0  0  0  0  0  0  0  0
    3.5480   -0.7380    0.3390 C   0  0  0  0  0  0  0  0  0  0  0  0
    3.3490   -1.8990    0.6550 O   0  0  0  0  0  0  0  0  0  0  0  0
    4.0920    0.2860    1.2680 C   0  0  0  0  0  0  0  0  0  0  0  0
    4.2010   -0.0460    2.6250 C   0  0  0  0  0  0  0  0  0  0  0  0
    4.4900    1.5590    0.8350 C   0  0  0  0  0  0  0  0  0  0  0  0
   -2.0010   -0.3190    3.7640 C   0  0  0  0  0  0  0  0  0  0  0  0
   -2.0810   -0.0200    4.8140 H   0  0  0  0  0  0  0  0  0  0  0  0
   -1.6840   -1.3680    3.7410 H   0  0  0  0  0  0  0  0  0  0  0  0
   -2.9870   -0.1920    3.3060 H   0  0  0  0  0  0  0  0  0  0  0  0
    4.6980    0.8840    3.5390 C   0  0  0  0  0  0  0  0  0  0  0  0
    4.9880    2.4860    1.7530 C   0  0  0  0  0  0  0  0  0  0  0  0
    5.0900    2.1490    3.1030 C   0  0  0  0  0  0  0  0  0  0  0  0
    5.2970    3.4730    1.4170 H   0  0  0  0  0  0  0  0  0  0  0  0
    4.4210    1.8440   -0.2110 H   0  0  0  0  0  0  0  0  0  0  0  0
    3.8930   -1.0300    2.9760 H   0  0  0  0  0  0  0  0  0  0  0  0
    4.7760    0.6220    4.5920 H   0  0  0  0  0  0  0  0  0  0  0  0
    5.4770    2.8730    3.8170 H   0  0  0  0  0  0  0  0  0  0  0  0
    1.3560    1.0690   -4.3550 H   0  0  0  0  0  0  0  0  0  0  0  0
    3.1020    0.4920   -4.1700 H   0  0  0  0  0  0  0  0  0  0  0  0
    3.3030   -2.9340   -3.4770 C   0  0  0  0  0  0  0  0  0  0  0  0
    5.0120   -1.4420   -2.6770 C   0  0  0  0  0  0  0  0  0  0  0  0
    4.2550   -3.6090   -4.2610 C   0  0  0  0  0  0  0  0  0  0  0  0
    5.9610   -2.1150   -3.4540 C   0  0  0  0  0  0  0  0  0  0  0  0
    5.5850   -3.1970   -4.2430 C   0  0  0  0  0  0  0  0  0  0  0  0
    1.9250   -3.4150   -3.5740 N   0  0  0  0  0  0  0  0  0  0  0  0
    5.3520   -0.5910   -2.0890 H   0  0  0  0  0  0  0  0  0  0  0  0
    6.9990   -1.7870   -3.4440 H   0  0  0  0  0  0  0  0  0  0  0  0
    3.9670   -4.4510   -4.8890 H   0  0  0  0  0  0  0  0  0  0  0  0
    6.3260   -3.7150   -4.8480 H   0  0  0  0  0  0  0  0  0  0  0  0
    1.2980   -3.5850   -2.5210 O   0  0  0  0  0  0  0  0  0  0  0  0
    1.4910   -3.6550   -4.7090 O   0  0  0  0  0  0  0  0  0  0  0  0
  1  2  1  0  0  0  0
  2  3  2  0  0  0  0
  2 11  1  0  0  0  0
  3  4  1  0  0  0  0
  3  5  1  0  0  0  0
  4 25  1  0  0  0  0
  5  6  1  0  0  0  0
  5  7  2  0  0  0  0
  7  8  1  0  0  0  0
  7  9  1  0  0  0  0
  9 10  1  0  0  0  0
  9 11  2  0  0  0  0
 10 13  2  0  0  0  0
 10 14  1  0  0  0  0
 11 12  1  0  0  0  0
 14 15  1  0  0  0  0
 14 16  2  0  0  0  0
 15 17  1  0  0  0  0
 15 18  1  0  0  0  0
 15 19  1  0  0  0  0
 16 37  1  0  0  0  0
 16 38  1  0  0  0  0
 18 20  1  0  0  0  0
 19 39  2  0  0  0  0
 19 40  1  0  0  0  0
 20 21  2  0  0  0  0
 20 22  1  0  0  0  0
 22 23  2  0  0  0  0
 22 24  1  0  0  0  0
 23 29  1  0  0  0  0
 23 34  1  0  0  0  0
 24 30  2  0  0  0  0
 24 33  1  0  0  0  0
 25 26  1  0  0  0  0
 25 27  1  0  0  0  0
 25 28  1  0  0  0  0
 29 31  2  0  0  0  0
 29 35  1  0  0  0  0
 30 31  1  0  0  0  0
 30 32  1  0  0  0  0
 31 36  1  0  0  0  0
 39 41  1  0  0  0  0
 39 44  1  0  0  0  0
 40 42  2  0  0  0  0
 40 45  1  0  0  0  0
 41 43  2  0  0  0  0
 41 47  1  0  0  0  0
 42 43  1  0  0  0  0
 42 46  1  0  0  0  0
 43 48  1  0  0  0  0
 44 49  2  0  0  0  0
 44 50  2  0  0  0  0
M  END