5dk.pdb
 OpenBabel09221412193D

 41 42  0  0  0  0  0  0  0  0999 V2000
   -1.9760   -1.4960    1.4410 H   0  0  0  0  0  0  0  0  0  0  0  0
   -1.2640   -0.8240    0.9730 C   0  0  0  0  0  0  0  0  0  0  0  0
   -0.7340    0.2770    1.6500 C   0  0  0  0  0  0  0  0  0  0  0  0
   -1.0190    0.6430    2.9360 O   0  0  0  0  0  0  0  0  0  0  0  0
    0.1650    1.1200    0.9910 C   0  0  0  0  0  0  0  0  0  0  0  0
    0.5680    1.9860    1.5100 H   0  0  0  0  0  0  0  0  0  0  0  0
    0.5480    0.8640   -0.3290 C   0  0  0  0  0  0  0  0  0  0  0  0
    1.2320    1.5460   -0.8240 H   0  0  0  0  0  0  0  0  0  0  0  0
    0.0390   -0.2550   -0.9920 C   0  0  0  0  0  0  0  0  0  0  0  0
    0.4210   -0.5700   -2.3890 C   0  0  0  0  0  0  0  0  0  0  0  0
   -0.8840   -1.0860   -0.3470 C   0  0  0  0  0  0  0  0  0  0  0  0
   -1.3040   -1.9430   -0.8690 H   0  0  0  0  0  0  0  0  0  0  0  0
   -0.4090   -1.0190   -3.1730 O   0  0  0  0  0  0  0  0  0  0  0  0
    1.8470   -0.3800   -2.7950 C   0  0  0  0  0  0  0  0  0  0  0  0
    2.8900   -1.1080   -1.9790 C   0  0  0  0  0  0  0  0  0  0  0  0
    2.0420    0.3060   -3.9350 C   0  0  0  0  0  0  0  0  0  0  0  0
    2.4070   -1.9670   -1.4940 H   0  0  0  0  0  0  0  0  0  0  0  0
    3.3940   -0.1840   -0.9960 O   0  0  0  0  0  0  0  0  0  0  0  0
    4.0680   -1.6350   -2.8030 C   0  0  0  0  0  0  0  0  0  0  0  0
    3.8250   -0.7360    0.1660 C   0  0  0  0  0  0  0  0  0  0  0  0
    3.8340   -1.9270    0.4300 O   0  0  0  0  0  0  0  0  0  0  0  0
    4.2930    0.3190    1.1040 C   0  0  0  0  0  0  0  0  0  0  0  0
    4.7210   -0.0750    2.3800 C   0  0  0  0  0  0  0  0  0  0  0  0
    4.3240    1.6770    0.7570 C   0  0  0  0  0  0  0  0  0  0  0  0
   -1.8770   -0.2180    3.6740 C   0  0  0  0  0  0  0  0  0  0  0  0
   -1.9760    0.1930    4.6830 H   0  0  0  0  0  0  0  0  0  0  0  0
   -1.4480   -1.2220    3.7650 H   0  0  0  0  0  0  0  0  0  0  0  0
   -2.8770   -0.2530    3.2290 H   0  0  0  0  0  0  0  0  0  0  0  0
    5.1720    0.8770    3.2960 C   0  0  0  0  0  0  0  0  0  0  0  0
    4.7740    2.6260    1.6780 C   0  0  0  0  0  0  0  0  0  0  0  0
    5.1980    2.2260    2.9450 C   0  0  0  0  0  0  0  0  0  0  0  0
    4.7970    3.6790    1.4060 H   0  0  0  0  0  0  0  0  0  0  0  0
    4.0040    2.0120   -0.2260 H   0  0  0  0  0  0  0  0  0  0  0  0
    4.7040   -1.1250    2.6650 H   0  0  0  0  0  0  0  0  0  0  0  0
    5.5030    0.5650    4.2840 H   0  0  0  0  0  0  0  0  0  0  0  0
    5.5490    2.9660    3.6600 H   0  0  0  0  0  0  0  0  0  0  0  0
    1.2070    0.7320   -4.4870 H   0  0  0  0  0  0  0  0  0  0  0  0
    3.0300    0.4570   -4.3530 H   0  0  0  0  0  0  0  0  0  0  0  0
    3.7290   -2.2630   -3.6330 H   0  0  0  0  0  0  0  0  0  0  0  0
    4.7350   -2.2350   -2.1750 H   0  0  0  0  0  0  0  0  0  0  0  0
    4.6800   -0.8170   -3.1990 H   0  0  0  0  0  0  0  0  0  0  0  0
  1  2  1  0  0  0  0
  2  3  2  0  0  0  0
  2 11  1  0  0  0  0
  3  4  1  0  0  0  0
  3  5  1  0  0  0  0
  4 25  1  0  0  0  0
  5  6  1  0  0  0  0
  5  7  2  0  0  0  0
  7  8  1  0  0  0  0
  7  9  1  0  0  0  0
  9 10  1  0  0  0  0
  9 11  2  0  0  0  0
 10 13  2  0  0  0  0
 10 14  1  0  0  0  0
 11 12  1  0  0  0  0
 14 15  1  0  0  0  0
 14 16  2  0  0  0  0
 15 17  1  0  0  0  0
 15 18  1  0  0  0  0
 15 19  1  0  0  0  0
 16 37  1  0  0  0  0
 16 38  1  0  0  0  0
 18 20  1  0  0  0  0
 19 39  1  0  0  0  0
 19 40  1  0  0  0  0
 19 41  1  0  0  0  0
 20 21  2  0  0  0  0
 20 22  1  0  0  0  0
 22 23  2  0  0  0  0
 22 24  1  0  0  0  0
 23 29  1  0  0  0  0
 23 34  1  0  0  0  0
 24 30  2  0  0  0  0
 24 33  1  0  0  0  0
 25 26  1  0  0  0  0
 25 27  1  0  0  0  0
 25 28  1  0  0  0  0
 29 31  2  0  0  0  0
 29 35  1  0  0  0  0
 30 31  1  0  0  0  0
 30 32  1  0  0  0  0
 31 36  1  0  0  0  0
M  END