5dl.pdb
 OpenBabel09221412193D

 48 50  0  0  0  0  0  0  0  0999 V2000
   -2.1450   -1.3370    1.4320 H   0  0  0  0  0  0  0  0  0  0  0  0
   -1.3880   -0.6680    1.0360 C   0  0  0  0  0  0  0  0  0  0  0  0
   -0.7820    0.3110    1.8260 C   0  0  0  0  0  0  0  0  0  0  0  0
   -1.0410    0.5530    3.1470 O   0  0  0  0  0  0  0  0  0  0  0  0
    0.1800    1.1530    1.2590 C   0  0  0  0  0  0  0  0  0  0  0  0
    0.6460    1.9230    1.8690 H   0  0  0  0  0  0  0  0  0  0  0  0
    0.5430    1.0190   -0.0830 C   0  0  0  0  0  0  0  0  0  0  0  0
    1.2750    1.7000   -0.5070 H   0  0  0  0  0  0  0  0  0  0  0  0
   -0.0490    0.0210   -0.8620 C   0  0  0  0  0  0  0  0  0  0  0  0
    0.3110   -0.1540   -2.2870 C   0  0  0  0  0  0  0  0  0  0  0  0
   -1.0280   -0.8080   -0.3090 C   0  0  0  0  0  0  0  0  0  0  0  0
   -1.5090   -1.5690   -0.9210 H   0  0  0  0  0  0  0  0  0  0  0  0
   -0.5720   -0.3150   -3.1240 O   0  0  0  0  0  0  0  0  0  0  0  0
    1.7580   -0.1600   -2.6580 C   0  0  0  0  0  0  0  0  0  0  0  0
    2.6720   -1.0660   -1.8550 C   0  0  0  0  0  0  0  0  0  0  0  0
    2.0840    0.5550   -3.7500 C   0  0  0  0  0  0  0  0  0  0  0  0
    2.0650   -1.8250   -1.3460 H   0  0  0  0  0  0  0  0  0  0  0  0
    3.3090   -0.2220   -0.8710 O   0  0  0  0  0  0  0  0  0  0  0  0
    3.7140   -1.7940   -2.7050 C   0  0  0  0  0  0  0  0  0  0  0  0
    3.4980   -0.7700    0.3530 C   0  0  0  0  0  0  0  0  0  0  0  0
    3.2210   -1.9100    0.6830 O   0  0  0  0  0  0  0  0  0  0  0  0
    4.0670    0.2450    1.2810 C   0  0  0  0  0  0  0  0  0  0  0  0
    4.1440   -0.0740    2.6430 C   0  0  0  0  0  0  0  0  0  0  0  0
    4.5130    1.5000    0.8410 C   0  0  0  0  0  0  0  0  0  0  0  0
   -2.0240   -0.2650    3.7690 C   0  0  0  0  0  0  0  0  0  0  0  0
   -2.1160    0.0570    4.8110 H   0  0  0  0  0  0  0  0  0  0  0  0
   -1.7190   -1.3170    3.7710 H   0  0  0  0  0  0  0  0  0  0  0  0
   -3.0030   -0.1370    3.2940 H   0  0  0  0  0  0  0  0  0  0  0  0
    4.6580    0.8510    3.5540 C   0  0  0  0  0  0  0  0  0  0  0  0
    5.0270    2.4220    1.7560 C   0  0  0  0  0  0  0  0  0  0  0  0
    5.0980    2.0970    3.1100 C   0  0  0  0  0  0  0  0  0  0  0  0
    5.3720    3.3940    1.4120 H   0  0  0  0  0  0  0  0  0  0  0  0
    4.4690    1.7750   -0.2090 H   0  0  0  0  0  0  0  0  0  0  0  0
    3.7990   -1.0420    3.0010 H   0  0  0  0  0  0  0  0  0  0  0  0
    4.7120    0.6000    4.6110 H   0  0  0  0  0  0  0  0  0  0  0  0
    5.4970    2.8170    3.8210 H   0  0  0  0  0  0  0  0  0  0  0  0
    1.3360    1.1270   -4.2960 H   0  0  0  0  0  0  0  0  0  0  0  0
    3.0960    0.5800   -4.1380 H   0  0  0  0  0  0  0  0  0  0  0  0
    3.3650   -2.9100   -3.4880 C   0  0  0  0  0  0  0  0  0  0  0  0
    5.0510   -1.3500   -2.7510 C   0  0  0  0  0  0  0  0  0  0  0  0
    4.3200   -3.5550   -4.2830 C   0  0  0  0  0  0  0  0  0  0  0  0
    6.0020   -2.0010   -3.5410 C   0  0  0  0  0  0  0  0  0  0  0  0
    5.6370   -3.1020   -4.3070 C   0  0  0  0  0  0  0  0  0  0  0  0
    1.7560   -3.5440   -3.5210 Cl  0  0  0  0  0  0  0  0  0  0  0  0
    5.3690   -0.4850   -2.1720 H   0  0  0  0  0  0  0  0  0  0  0  0
    7.0300   -1.6450   -3.5570 H   0  0  0  0  0  0  0  0  0  0  0  0
    4.0400   -4.4150   -4.8870 H   0  0  0  0  0  0  0  0  0  0  0  0
    6.3750   -3.6080   -4.9240 H   0  0  0  0  0  0  0  0  0  0  0  0
  1  2  1  0  0  0  0
  2  3  2  0  0  0  0
  2 11  1  0  0  0  0
  3  4  1  0  0  0  0
  3  5  1  0  0  0  0
  4 25  1  0  0  0  0
  5  6  1  0  0  0  0
  5  7  2  0  0  0  0
  7  8  1  0  0  0  0
  7  9  1  0  0  0  0
  9 10  1  0  0  0  0
  9 11  2  0  0  0  0
 10 13  2  0  0  0  0
 10 14  1  0  0  0  0
 11 12  1  0  0  0  0
 14 15  1  0  0  0  0
 14 16  2  0  0  0  0
 15 17  1  0  0  0  0
 15 18  1  0  0  0  0
 15 19  1  0  0  0  0
 16 37  1  0  0  0  0
 16 38  1  0  0  0  0
 18 20  1  0  0  0  0
 19 39  2  0  0  0  0
 19 40  1  0  0  0  0
 20 21  2  0  0  0  0
 20 22  1  0  0  0  0
 22 23  2  0  0  0  0
 22 24  1  0  0  0  0
 23 29  1  0  0  0  0
 23 34  1  0  0  0  0
 24 30  2  0  0  0  0
 24 33  1  0  0  0  0
 25 26  1  0  0  0  0
 25 27  1  0  0  0  0
 25 28  1  0  0  0  0
 29 31  2  0  0  0  0
 29 35  1  0  0  0  0
 30 31  1  0  0  0  0
 30 32  1  0  0  0  0
 31 36  1  0  0  0  0
 39 41  1  0  0  0  0
 39 44  1  0  0  0  0
 40 42  2  0  0  0  0
 40 45  1  0  0  0  0
 41 43  2  0  0  0  0
 41 47  1  0  0  0  0
 42 43  1  0  0  0  0
 42 46  1  0  0  0  0
 43 48  1  0  0  0  0
M  END