6ac.pdb
 OpenBabel09221412193D

 50 52  0  0  0  0  0  0  0  0999 V2000
   -1.1710   -1.8630    1.4900 H   0  0  0  0  0  0  0  0  0  0  0  0
   -0.8230   -1.0100    0.9120 C   0  0  0  0  0  0  0  0  0  0  0  0
   -0.8280    0.2670    1.4780 C   0  0  0  0  0  0  0  0  0  0  0  0
   -0.3810    1.3640    0.7400 C   0  0  0  0  0  0  0  0  0  0  0  0
   -0.4000    2.3580    1.1800 H   0  0  0  0  0  0  0  0  0  0  0  0
    0.0820    1.1850   -0.5640 C   0  0  0  0  0  0  0  0  0  0  0  0
    0.4140    2.0460   -1.1380 H   0  0  0  0  0  0  0  0  0  0  0  0
    0.0950   -0.0980   -1.1230 C   0  0  0  0  0  0  0  0  0  0  0  0
    0.5920   -0.3110   -2.4990 C   0  0  0  0  0  0  0  0  0  0  0  0
   -0.3710   -1.1940   -0.3940 C   0  0  0  0  0  0  0  0  0  0  0  0
   -0.3650   -2.1890   -0.8330 H   0  0  0  0  0  0  0  0  0  0  0  0
   -0.0780   -0.9300   -3.3170 O   0  0  0  0  0  0  0  0  0  0  0  0
    1.9490    0.2270   -2.8280 C   0  0  0  0  0  0  0  0  0  0  0  0
    2.0320    0.8860   -3.9990 C   0  0  0  0  0  0  0  0  0  0  0  0
    3.7740   -1.8030   -0.1200 C   0  0  0  0  0  0  0  0  0  0  0  0
    1.1610    0.9760   -4.6470 H   0  0  0  0  0  0  0  0  0  0  0  0
    3.2440    1.5320   -4.5100 C   0  0  0  0  0  0  0  0  0  0  0  0
    4.9130   -1.0120    0.4090 C   0  0  0  0  0  0  0  0  0  0  0  0
    4.9010   -0.6450    1.7590 C   0  0  0  0  0  0  0  0  0  0  0  0
    3.8070    2.6280   -3.8470 C   0  0  0  0  0  0  0  0  0  0  0  0
    3.8370    1.0630   -5.6840 C   0  0  0  0  0  0  0  0  0  0  0  0
    4.9930    1.6730   -6.1810 C   0  0  0  0  0  0  0  0  0  0  0  0
    4.9640    3.2350   -4.3430 C   0  0  0  0  0  0  0  0  0  0  0  0
    5.5590    2.7690   -5.5200 C   0  0  0  0  0  0  0  0  0  0  0  0
    3.0760   -0.0450   -1.8580 C   0  0  0  0  0  0  0  0  0  0  0  0
    3.2870   -1.5000   -1.5030 C   0  0  0  0  0  0  0  0  0  0  0  0
    2.8840    0.5350   -0.9470 H   0  0  0  0  0  0  0  0  0  0  0  0
    4.0250    0.3310   -2.2540 H   0  0  0  0  0  0  0  0  0  0  0  0
    3.0030   -2.5660   -2.2700 C   0  0  0  0  0  0  0  0  0  0  0  0
    5.9530    0.1070    2.2850 C   0  0  0  0  0  0  0  0  0  0  0  0
    5.3940    4.0780   -3.8060 H   0  0  0  0  0  0  0  0  0  0  0  0
    6.8190    3.4000   -6.0360 C   0  0  0  0  0  0  0  0  0  0  0  0
    3.4110    0.2160   -6.2160 H   0  0  0  0  0  0  0  0  0  0  0  0
    5.4450    1.2870   -7.0920 H   0  0  0  0  0  0  0  0  0  0  0  0
    3.3530    3.0190   -2.9400 H   0  0  0  0  0  0  0  0  0  0  0  0
   -1.1850    0.4060    2.4950 H   0  0  0  0  0  0  0  0  0  0  0  0
    6.8550    3.3590   -7.1300 H   0  0  0  0  0  0  0  0  0  0  0  0
    7.6910    2.8770   -5.6310 H   0  0  0  0  0  0  0  0  0  0  0  0
    6.8750    4.4550   -5.7490 H   0  0  0  0  0  0  0  0  0  0  0  0
    3.1430   -3.5810   -1.9070 H   0  0  0  0  0  0  0  0  0  0  0  0
    2.6080   -2.4630   -3.2770 H   0  0  0  0  0  0  0  0  0  0  0  0
    3.2260   -2.6440    0.5830 O   0  0  0  0  0  0  0  0  0  0  0  0
    5.9960   -0.6560   -0.4040 C   0  0  0  0  0  0  0  0  0  0  0  0
    7.0460    0.0940    0.1270 C   0  0  0  0  0  0  0  0  0  0  0  0
    7.0210    0.4790    1.4680 C   0  0  0  0  0  0  0  0  0  0  0  0
    7.8420    1.0600    1.8810 H   0  0  0  0  0  0  0  0  0  0  0  0
    7.8890    0.3720   -0.5010 H   0  0  0  0  0  0  0  0  0  0  0  0
    4.0730   -0.9410    2.3990 H   0  0  0  0  0  0  0  0  0  0  0  0
    5.9410    0.3970    3.3330 H   0  0  0  0  0  0  0  0  0  0  0  0
    6.0430   -0.9680   -1.4440 H   0  0  0  0  0  0  0  0  0  0  0  0
  1  2  1  0  0  0  0
  2  3  2  0  0  0  0
  2 10  1  0  0  0  0
  3  4  1  0  0  0  0
  3 36  1  0  0  0  0
  4  5  1  0  0  0  0
  4  6  2  0  0  0  0
  6  7  1  0  0  0  0
  6  8  1  0  0  0  0
  8  9  1  0  0  0  0
  8 10  2  0  0  0  0
  9 12  2  0  0  0  0
  9 13  1  0  0  0  0
 10 11  1  0  0  0  0
 13 14  2  0  0  0  0
 13 25  1  0  0  0  0
 14 16  1  0  0  0  0
 14 17  1  0  0  0  0
 15 18  1  0  0  0  0
 15 26  1  0  0  0  0
 15 42  2  0  0  0  0
 17 20  2  0  0  0  0
 17 21  1  0  0  0  0
 18 19  2  0  0  0  0
 18 43  1  0  0  0  0
 19 30  1  0  0  0  0
 19 48  1  0  0  0  0
 20 23  1  0  0  0  0
 20 35  1  0  0  0  0
 21 22  2  0  0  0  0
 21 33  1  0  0  0  0
 22 24  1  0  0  0  0
 22 34  1  0  0  0  0
 23 24  2  0  0  0  0
 23 31  1  0  0  0  0
 24 32  1  0  0  0  0
 25 26  1  0  0  0  0
 25 27  1  0  0  0  0
 25 28  1  0  0  0  0
 26 29  2  0  0  0  0
 29 40  1  0  0  0  0
 29 41  1  0  0  0  0
 30 45  2  0  0  0  0
 30 49  1  0  0  0  0
 32 37  1  0  0  0  0
 32 38  1  0  0  0  0
 32 39  1  0  0  0  0
 43 44  2  0  0  0  0
 43 50  1  0  0  0  0
 44 45  1  0  0  0  0
 44 47  1  0  0  0  0
 45 46  1  0  0  0  0
M  END