6dc.pdb
 OpenBabel09221412193D

 58 60  0  0  0  0  0  0  0  0999 V2000
   -1.2160   -1.8930    1.3180 H   0  0  0  0  0  0  0  0  0  0  0  0
   -0.8480   -1.0180    0.7930 C   0  0  0  0  0  0  0  0  0  0  0  0
   -0.8020    0.2410    1.3950 C   0  0  0  0  0  0  0  0  0  0  0  0
   -0.3160    1.3340    0.6700 C   0  0  0  0  0  0  0  0  0  0  0  0
   -0.2930    2.3170    1.1330 H   0  0  0  0  0  0  0  0  0  0  0  0
    0.1350    1.1750   -0.6410 C   0  0  0  0  0  0  0  0  0  0  0  0
    0.4960    2.0390   -1.1910 H   0  0  0  0  0  0  0  0  0  0  0  0
    0.0990   -0.0920   -1.2310 C   0  0  0  0  0  0  0  0  0  0  0  0
    0.5870   -0.2940   -2.6130 C   0  0  0  0  0  0  0  0  0  0  0  0
   -0.4060   -1.1840   -0.5240 C   0  0  0  0  0  0  0  0  0  0  0  0
   -0.4390   -2.1680   -0.9870 H   0  0  0  0  0  0  0  0  0  0  0  0
   -0.0940   -0.8990   -3.4330 O   0  0  0  0  0  0  0  0  0  0  0  0
    1.9480    0.2320   -2.9430 C   0  0  0  0  0  0  0  0  0  0  0  0
    2.0350    0.9010   -4.1090 C   0  0  0  0  0  0  0  0  0  0  0  0
    3.6990   -1.8210   -0.2200 C   0  0  0  0  0  0  0  0  0  0  0  0
    1.1640    1.0100   -4.7550 H   0  0  0  0  0  0  0  0  0  0  0  0
    3.2530    1.5410   -4.6080 C   0  0  0  0  0  0  0  0  0  0  0  0
    4.8520   -1.0630    0.3290 C   0  0  0  0  0  0  0  0  0  0  0  0
    4.8390   -0.7130    1.6830 C   0  0  0  0  0  0  0  0  0  0  0  0
    3.7970    2.6530   -3.9540 C   0  0  0  0  0  0  0  0  0  0  0  0
    3.8800    1.0470   -5.7540 C   0  0  0  0  0  0  0  0  0  0  0  0
    5.0460    1.6500   -6.2340 C   0  0  0  0  0  0  0  0  0  0  0  0
    4.9640    3.2530   -4.4320 C   0  0  0  0  0  0  0  0  0  0  0  0
    5.5910    2.7630   -5.5830 C   0  0  0  0  0  0  0  0  0  0  0  0
    3.0770   -0.0580   -1.9810 C   0  0  0  0  0  0  0  0  0  0  0  0
    3.2550   -1.5150   -1.6150 C   0  0  0  0  0  0  0  0  0  0  0  0
    2.9080    0.5350   -1.0740 H   0  0  0  0  0  0  0  0  0  0  0  0
    4.0320    0.2900   -2.3890 H   0  0  0  0  0  0  0  0  0  0  0  0
    2.9700   -2.5780   -2.3880 C   0  0  0  0  0  0  0  0  0  0  0  0
    5.8990    0.0170    2.2320 C   0  0  0  0  0  0  0  0  0  0  0  0
    5.3780    4.1080   -3.9020 H   0  0  0  0  0  0  0  0  0  0  0  0
    6.8620    3.3860   -6.0790 C   0  0  0  0  0  0  0  0  0  0  0  0
    3.4700    0.1860   -6.2780 H   0  0  0  0  0  0  0  0  0  0  0  0
    5.5250    1.2450   -7.1230 H   0  0  0  0  0  0  0  0  0  0  0  0
    3.3190    3.0600   -3.0660 H   0  0  0  0  0  0  0  0  0  0  0  0
   -1.2000    0.5390    2.6700 O   0  0  0  0  0  0  0  0  0  0  0  0
    6.9200    3.3340   -7.1710 H   0  0  0  0  0  0  0  0  0  0  0  0
    7.7260    2.8670   -5.6520 H   0  0  0  0  0  0  0  0  0  0  0  0
    6.9150    4.4440   -5.8010 H   0  0  0  0  0  0  0  0  0  0  0  0
    3.0830   -3.5940   -2.0190 H   0  0  0  0  0  0  0  0  0  0  0  0
    2.6040   -2.4690   -3.4040 H   0  0  0  0  0  0  0  0  0  0  0  0
    3.1050   -2.6370    0.4770 O   0  0  0  0  0  0  0  0  0  0  0  0
    5.9470   -0.7160   -0.4670 C   0  0  0  0  0  0  0  0  0  0  0  0
    7.0020    0.0120    0.0870 C   0  0  0  0  0  0  0  0  0  0  0  0
    6.9810    0.3890    1.4330 C   0  0  0  0  0  0  0  0  0  0  0  0
    8.0730    1.1060    1.8390 O   0  0  0  0  0  0  0  0  0  0  0  0
    7.8530    0.2850   -0.5340 H   0  0  0  0  0  0  0  0  0  0  0  0
    3.9990   -1.0030    2.3130 H   0  0  0  0  0  0  0  0  0  0  0  0
    5.8480    0.2740    3.2850 H   0  0  0  0  0  0  0  0  0  0  0  0
    6.0030   -1.0130   -1.5110 H   0  0  0  0  0  0  0  0  0  0  0  0
   -1.6950   -0.5390    3.4550 C   0  0  0  0  0  0  0  0  0  0  0  0
    8.0800    1.5580    3.1870 C   0  0  0  0  0  0  0  0  0  0  0  0
   -1.9670   -0.1380    4.4370 H   0  0  0  0  0  0  0  0  0  0  0  0
   -0.9240   -1.3010    3.6090 H   0  0  0  0  0  0  0  0  0  0  0  0
   -2.5970   -0.9710    3.0100 H   0  0  0  0  0  0  0  0  0  0  0  0
    8.9990    2.1320    3.3420 H   0  0  0  0  0  0  0  0  0  0  0  0
    8.0930    0.7150    3.8860 H   0  0  0  0  0  0  0  0  0  0  0  0
    7.2340    2.2240    3.3860 H   0  0  0  0  0  0  0  0  0  0  0  0
  1  2  1  0  0  0  0
  2  3  2  0  0  0  0
  2 10  1  0  0  0  0
  3  4  1  0  0  0  0
  3 36  1  0  0  0  0
  4  5  1  0  0  0  0
  4  6  2  0  0  0  0
  6  7  1  0  0  0  0
  6  8  1  0  0  0  0
  8  9  1  0  0  0  0
  8 10  2  0  0  0  0
  9 12  2  0  0  0  0
  9 13  1  0  0  0  0
 10 11  1  0  0  0  0
 13 14  2  0  0  0  0
 13 25  1  0  0  0  0
 14 16  1  0  0  0  0
 14 17  1  0  0  0  0
 15 18  1  0  0  0  0
 15 26  1  0  0  0  0
 15 42  2  0  0  0  0
 17 20  2  0  0  0  0
 17 21  1  0  0  0  0
 18 19  2  0  0  0  0
 18 43  1  0  0  0  0
 19 30  1  0  0  0  0
 19 48  1  0  0  0  0
 20 23  1  0  0  0  0
 20 35  1  0  0  0  0
 21 22  2  0  0  0  0
 21 33  1  0  0  0  0
 22 24  1  0  0  0  0
 22 34  1  0  0  0  0
 23 24  2  0  0  0  0
 23 31  1  0  0  0  0
 24 32  1  0  0  0  0
 25 26  1  0  0  0  0
 25 27  1  0  0  0  0
 25 28  1  0  0  0  0
 26 29  2  0  0  0  0
 29 40  1  0  0  0  0
 29 41  1  0  0  0  0
 30 45  2  0  0  0  0
 30 49  1  0  0  0  0
 32 37  1  0  0  0  0
 32 38  1  0  0  0  0
 32 39  1  0  0  0  0
 36 51  1  0  0  0  0
 43 44  2  0  0  0  0
 43 50  1  0  0  0  0
 44 45  1  0  0  0  0
 44 47  1  0  0  0  0
 45 46  1  0  0  0  0
 46 52  1  0  0  0  0
 51 53  1  0  0  0  0
 51 54  1  0  0  0  0
 51 55  1  0  0  0  0
 52 56  1  0  0  0  0
 52 57  1  0  0  0  0
 52 58  1  0  0  0  0
M  END