7aa.pdb
 OpenBabel09221412193D

 51 52  0  0  0  0  0  0  0  0999 V2000
   -2.3660   -1.0400    1.2340 H   0  0  0  0  0  0  0  0  0  0  0  0
   -1.5850   -0.4320    0.7890 C   0  0  0  0  0  0  0  0  0  0  0  0
   -1.1230    0.7320    1.4000 C   0  0  0  0  0  0  0  0  0  0  0  0
   -1.5670    1.2360    2.5910 O   0  0  0  0  0  0  0  0  0  0  0  0
   -0.1390    1.4940    0.7680 C   0  0  0  0  0  0  0  0  0  0  0  0
    0.2090    2.4130    1.2340 H   0  0  0  0  0  0  0  0  0  0  0  0
    0.4200    1.0760   -0.4440 C   0  0  0  0  0  0  0  0  0  0  0  0
    1.2010    1.6880   -0.8830 H   0  0  0  0  0  0  0  0  0  0  0  0
   -0.0310   -0.0970   -1.0570 C   0  0  0  0  0  0  0  0  0  0  0  0
    0.5260   -0.6180   -2.3390 C   0  0  0  0  0  0  0  0  0  0  0  0
   -1.0480   -0.8390   -0.4380 C   0  0  0  0  0  0  0  0  0  0  0  0
   -1.4140   -1.7540   -0.9020 H   0  0  0  0  0  0  0  0  0  0  0  0
   -0.0970   -1.4350   -3.0130 O   0  0  0  0  0  0  0  0  0  0  0  0
    1.8890   -0.2020   -2.7620 C   0  0  0  0  0  0  0  0  0  0  0  0
    1.9730    0.9900   -3.3820 C   0  0  0  0  0  0  0  0  0  0  0  0
    4.7180   -1.7970   -1.0460 C   0  0  0  0  0  0  0  0  0  0  0  0
    1.0940    1.6190   -3.5150 H   0  0  0  0  0  0  0  0  0  0  0  0
    3.2070    1.5360   -3.9480 C   0  0  0  0  0  0  0  0  0  0  0  0
    4.0950    2.2560   -3.1390 C   0  0  0  0  0  0  0  0  0  0  0  0
    3.5100    1.3200   -5.2970 C   0  0  0  0  0  0  0  0  0  0  0  0
    4.6960    1.8210   -5.8420 C   0  0  0  0  0  0  0  0  0  0  0  0
    5.2820    2.7640   -3.6760 C   0  0  0  0  0  0  0  0  0  0  0  0
   -2.1790    0.3020    3.4740 C   0  0  0  0  0  0  0  0  0  0  0  0
   -2.3190    0.7990    4.4390 H   0  0  0  0  0  0  0  0  0  0  0  0
   -1.5360   -0.5690    3.6380 H   0  0  0  0  0  0  0  0  0  0  0  0
   -3.1650    0.0020    3.1070 H   0  0  0  0  0  0  0  0  0  0  0  0
    5.5780    2.5430   -5.0270 C   0  0  0  0  0  0  0  0  0  0  0  0
    2.9770   -1.2390   -2.6150 C   0  0  0  0  0  0  0  0  0  0  0  0
    3.2580   -1.6200   -1.2060 N   0  0  0  0  0  0  0  0  0  0  0  0
    3.8900   -0.8440   -3.0770 H   0  0  0  0  0  0  0  0  0  0  0  0
    2.7350   -2.1220   -3.2230 H   0  0  0  0  0  0  0  0  0  0  0  0
    2.5040   -2.8420   -0.8500 C   0  0  0  0  0  0  0  0  0  0  0  0
    5.9580    3.3220   -3.0320 H   0  0  0  0  0  0  0  0  0  0  0  0
    6.8270    3.0670   -5.5950 N   0  0  0  0  0  0  0  0  0  0  0  0
    2.8270    0.7570   -5.9310 H   0  0  0  0  0  0  0  0  0  0  0  0
    4.9140    1.6390   -6.8930 H   0  0  0  0  0  0  0  0  0  0  0  0
    3.8710    2.4230   -2.0870 H   0  0  0  0  0  0  0  0  0  0  0  0
    7.0660    2.8270   -6.7860 O   0  0  0  0  0  0  0  0  0  0  0  0
    7.5710    3.7180   -4.8460 O   0  0  0  0  0  0  0  0  0  0  0  0
    5.0940   -2.5560   -1.7450 H   0  0  0  0  0  0  0  0  0  0  0  0
    5.1930   -2.1450    0.3590 C   0  0  0  0  0  0  0  0  0  0  0  0
    5.2070   -0.8500   -1.3090 H   0  0  0  0  0  0  0  0  0  0  0  0
    3.0800   -3.7510   -1.0660 H   0  0  0  0  0  0  0  0  0  0  0  0
    1.5940   -2.9270   -1.4560 H   0  0  0  0  0  0  0  0  0  0  0  0
    2.0320   -2.8390    0.6010 C   0  0  0  0  0  0  0  0  0  0  0  0
    4.9410   -3.1760    0.6240 H   0  0  0  0  0  0  0  0  0  0  0  0
    4.7680   -1.4660    1.1050 H   0  0  0  0  0  0  0  0  0  0  0  0
    6.2840   -2.0590    0.4140 H   0  0  0  0  0  0  0  0  0  0  0  0
    2.8470   -2.9940    1.3100 H   0  0  0  0  0  0  0  0  0  0  0  0
    1.3120   -3.6500    0.7560 H   0  0  0  0  0  0  0  0  0  0  0  0
    1.5340   -1.9000    0.8580 H   0  0  0  0  0  0  0  0  0  0  0  0
  1  2  1  0  0  0  0
  2  3  2  0  0  0  0
  2 11  1  0  0  0  0
  3  4  1  0  0  0  0
  3  5  1  0  0  0  0
  4 23  1  0  0  0  0
  5  6  1  0  0  0  0
  5  7  2  0  0  0  0
  7  8  1  0  0  0  0
  7  9  1  0  0  0  0
  9 10  1  0  0  0  0
  9 11  2  0  0  0  0
 10 13  2  0  0  0  0
 10 14  1  0  0  0  0
 11 12  1  0  0  0  0
 14 15  2  0  0  0  0
 14 28  1  0  0  0  0
 15 17  1  0  0  0  0
 15 18  1  0  0  0  0
 16 29  1  0  0  0  0
 16 40  1  0  0  0  0
 16 41  1  0  0  0  0
 16 42  1  0  0  0  0
 18 19  2  0  0  0  0
 18 20  1  0  0  0  0
 19 22  1  0  0  0  0
 19 37  1  0  0  0  0
 20 21  2  0  0  0  0
 20 35  1  0  0  0  0
 21 27  1  0  0  0  0
 21 36  1  0  0  0  0
 22 27  2  0  0  0  0
 22 33  1  0  0  0  0
 23 24  1  0  0  0  0
 23 25  1  0  0  0  0
 23 26  1  0  0  0  0
 27 34  1  0  0  0  0
 28 29  1  0  0  0  0
 28 30  1  0  0  0  0
 28 31  1  0  0  0  0
 29 32  1  0  0  0  0
 32 43  1  0  0  0  0
 32 44  1  0  0  0  0
 32 45  1  0  0  0  0
 34 38  2  0  0  0  0
 34 39  2  0  0  0  0
 41 46  1  0  0  0  0
 41 47  1  0  0  0  0
 41 48  1  0  0  0  0
 45 49  1  0  0  0  0
 45 50  1  0  0  0  0
 45 51  1  0  0  0  0
M  END