
 OpenBabel06261318113D
Structure written by MMmdl.
  8  7  0  0  0  0  0  0  0  0999 V2000
   -1.6812   -1.2159   -0.3508 Cl  0  0  0  0  0  0  0  0  0  0  0  0
    1.7400   -1.2159   -0.3508 Cl  0  0  0  0  0  0  0  0  0  0  0  0
   -0.5986    0.1605   -0.3508 C   0  0  0  0  0  0  0  0  0  0  0  0
    0.6574   -0.0909    0.4422 C   0  0  0  0  0  0  0  0  0  0  0  0
   -1.1659    1.0104    0.1035 H   0  0  0  0  0  0  0  0  0  0  0  0
   -0.3697    0.3902   -1.4199 H   0  0  0  0  0  0  0  0  0  0  0  0
    0.4285   -0.5192    1.4484 H   0  0  0  0  0  0  0  0  0  0  0  0
    1.2247    0.8655    0.5606 H   0  0  0  0  0  0  0  0  0  0  0  0
  1  3  1  0  0  0  0
  2  4  1  0  0  0  0
  3  4  1  0  0  0  0
  3  5  1  0  0  0  0
  3  6  1  0  0  0  0
  4  7  1  0  0  0  0
  4  8  1  0  0  0  0
M  END