
 OpenBabel06261318113D
Structure written by MMmdl.
 12 12  0  0  0  0  0  0  0  0999 V2000
   -2.6984   -1.5057    0.0008 Cl  0  0  0  0  0  0  0  0  0  0  0  0
    2.6519   -1.5057    0.0008 Cl  0  0  0  0  0  0  0  0  0  0  0  0
   -0.0233   -1.3662    0.0008 C   0  0  0  0  0  0  0  0  0  0  0  0
   -1.2271   -0.6553    0.0004 C   0  0  0  0  0  0  0  0  0  0  0  0
    1.1805   -0.6553    0.0004 C   0  0  0  0  0  0  0  0  0  0  0  0
   -1.2342    0.7433   -0.0005 C   0  0  0  0  0  0  0  0  0  0  0  0
    1.1877    0.7433   -0.0005 C   0  0  0  0  0  0  0  0  0  0  0  0
   -0.0233    1.4338   -0.0009 C   0  0  0  0  0  0  0  0  0  0  0  0
   -0.0233   -2.4673    0.0015 H   0  0  0  0  0  0  0  0  0  0  0  0
   -2.1866    1.2947   -0.0009 H   0  0  0  0  0  0  0  0  0  0  0  0
    2.1400    1.2947   -0.0008 H   0  0  0  0  0  0  0  0  0  0  0  0
   -0.0233    2.5344   -0.0016 H   0  0  0  0  0  0  0  0  0  0  0  0
  1  4  1  0  0  0  0
  2  5  1  0  0  0  0
  3  4  2  0  0  0  0
  3  5  1  0  0  0  0
  3  9  1  0  0  0  0
  4  6  1  0  0  0  0
  5  7  2  0  0  0  0
  6  8  2  0  0  0  0
  6 10  1  0  0  0  0
  7  8  1  0  0  0  0
  7 11  1  0  0  0  0
  8 12  1  0  0  0  0
M  END