
 OpenBabel06261318113D
Structure written by MMmdl.
 14 13  0  0  0  0  0  0  0  0999 V2000
   -3.3338   -0.3701    0.0000 Cl  0  0  0  0  0  0  0  0  0  0  0  0
   -0.6279   -0.3701    0.0000 C   0  0  0  0  0  0  0  0  0  0  0  0
    0.6508    0.4431    0.0000 C   0  0  0  0  0  0  0  0  0  0  0  0
   -1.8317    0.5408    0.0011 C   0  0  0  0  0  0  0  0  0  0  0  0
    1.8658   -0.4481   -0.0016 C   0  0  0  0  0  0  0  0  0  0  0  0
   -0.6516   -1.0350   -0.9035 H   0  0  0  0  0  0  0  0  0  0  0  0
   -0.6508   -1.0363    0.9026 H   0  0  0  0  0  0  0  0  0  0  0  0
    0.6708    1.1098   -0.9024 H   0  0  0  0  0  0  0  0  0  0  0  0
    0.6718    1.1081    0.9036 H   0  0  0  0  0  0  0  0  0  0  0  0
   -1.8510    1.1849   -0.9105 H   0  0  0  0  0  0  0  0  0  0  0  0
   -1.8509    1.1826    0.9144 H   0  0  0  0  0  0  0  0  0  0  0  0
    1.8744   -1.1019   -0.9071 H   0  0  0  0  0  0  0  0  0  0  0  0
    2.7972    0.1680   -0.0020 H   0  0  0  0  0  0  0  0  0  0  0  0
    1.8759   -1.1030    0.9031 H   0  0  0  0  0  0  0  0  0  0  0  0
  1  4  1  0  0  0  0
  2  3  1  0  0  0  0
  2  4  1  0  0  0  0
  2  6  1  0  0  0  0
  2  7  1  0  0  0  0
  3  5  1  0  0  0  0
  3  8  1  0  0  0  0
  3  9  1  0  0  0  0
  4 10  1  0  0  0  0
  4 11  1  0  0  0  0
  5 12  1  0  0  0  0
  5 13  1  0  0  0  0
  5 14  1  0  0  0  0
M  END