
 OpenBabel06261318113D
Structure written by MMmdl.
 33 32  0  0  0  0  0  0  0  0999 V2000
   -6.5772   -0.4853    0.0008 O   0  0  0  0  0  0  0  0  0  0  0  0
   -0.4080   -0.4853    0.0008 C   0  0  0  0  0  0  0  0  0  0  0  0
    0.7096    0.5354    0.0008 C   0  0  0  0  0  0  0  0  0  0  0  0
   -1.7647    0.1860    0.0012 C   0  0  0  0  0  0  0  0  0  0  0  0
    2.0665   -0.1353   -0.0003 C   0  0  0  0  0  0  0  0  0  0  0  0
   -2.8823   -0.8350    0.0012 C   0  0  0  0  0  0  0  0  0  0  0  0
    3.1842    0.8853   -0.0007 C   0  0  0  0  0  0  0  0  0  0  0  0
   -4.2359   -0.1605    0.0011 C   0  0  0  0  0  0  0  0  0  0  0  0
    4.5420    0.2157   -0.0024 C   0  0  0  0  0  0  0  0  0  0  0  0
   -5.3481   -1.1949    0.0007 C   0  0  0  0  0  0  0  0  0  0  0  0
    5.6580    1.2282   -0.0029 C   0  0  0  0  0  0  0  0  0  0  0  0
   -0.3145   -1.1453    0.9033 H   0  0  0  0  0  0  0  0  0  0  0  0
   -0.3148   -1.1450   -0.9020 H   0  0  0  0  0  0  0  0  0  0  0  0
    0.6167    1.1948    0.9038 H   0  0  0  0  0  0  0  0  0  0  0  0
    0.6158    1.1958   -0.9014 H   0  0  0  0  0  0  0  0  0  0  0  0
   -1.8585    0.8459   -0.9013 H   0  0  0  0  0  0  0  0  0  0  0  0
   -1.8582    0.8456    0.9040 H   0  0  0  0  0  0  0  0  0  0  0  0
    2.1604   -0.7955    0.9020 H   0  0  0  0  0  0  0  0  0  0  0  0
    2.1592   -0.7949   -0.9032 H   0  0  0  0  0  0  0  0  0  0  0  0
   -2.7886   -1.4946    0.9041 H   0  0  0  0  0  0  0  0  0  0  0  0
   -2.7885   -1.4946   -0.9017 H   0  0  0  0  0  0  0  0  0  0  0  0
    3.0920    1.5447    0.9023 H   0  0  0  0  0  0  0  0  0  0  0  0
    3.0903    1.5458   -0.9027 H   0  0  0  0  0  0  0  0  0  0  0  0
   -4.3431    0.4963    0.9032 H   0  0  0  0  0  0  0  0  0  0  0  0
   -4.3428    0.4966   -0.9009 H   0  0  0  0  0  0  0  0  0  0  0  0
    4.6317   -0.4445   -0.9053 H   0  0  0  0  0  0  0  0  0  0  0  0
    4.6334   -0.4455    0.8997 H   0  0  0  0  0  0  0  0  0  0  0  0
   -5.2828   -1.8464    0.9135 H   0  0  0  0  0  0  0  0  0  0  0  0
   -5.2826   -1.8459   -0.9124 H   0  0  0  0  0  0  0  0  0  0  0  0
    5.5999    1.8798    0.9024 H   0  0  0  0  0  0  0  0  0  0  0  0
    5.5981    1.8807   -0.9074 H   0  0  0  0  0  0  0  0  0  0  0  0
    6.6491    0.7138   -0.0042 H   0  0  0  0  0  0  0  0  0  0  0  0
   -7.2769   -1.1480    0.0006 H   0  0  0  0  0  0  0  0  0  0  0  0
  1 10  1  0  0  0  0
  1 33  1  0  0  0  0
  2  3  1  0  0  0  0
  2  4  1  0  0  0  0
  2 12  1  0  0  0  0
  2 13  1  0  0  0  0
  3  5  1  0  0  0  0
  3 14  1  0  0  0  0
  3 15  1  0  0  0  0
  4  6  1  0  0  0  0
  4 16  1  0  0  0  0
  4 17  1  0  0  0  0
  5  7  1  0  0  0  0
  5 18  1  0  0  0  0
  5 19  1  0  0  0  0
  6  8  1  0  0  0  0
  6 20  1  0  0  0  0
  6 21  1  0  0  0  0
  7  9  1  0  0  0  0
  7 22  1  0  0  0  0
  7 23  1  0  0  0  0
  8 10  1  0  0  0  0
  8 24  1  0  0  0  0
  8 25  1  0  0  0  0
  9 11  1  0  0  0  0
  9 26  1  0  0  0  0
  9 27  1  0  0  0  0
 10 28  1  0  0  0  0
 10 29  1  0  0  0  0
 11 30  1  0  0  0  0
 11 31  1  0  0  0  0
 11 32  1  0  0  0  0
M  END