
 OpenBabel06261318113D
Structure written by MMmdl.
 29 28  0  0  0  0  0  0  0  0999 V2000
   -0.3468   -0.5674   -0.2384 O   0  0  0  0  0  0  0  0  0  0  0  0
    3.2331   -0.5674   -0.2384 O   0  0  0  0  0  0  0  0  0  0  0  0
    6.1577    0.7780   -0.2384 O   0  0  0  0  0  0  0  0  0  0  0  0
   -2.6963   -0.6156   -0.0039 C   0  0  0  0  0  0  0  0  0  0  0  0
   -1.3764   -0.6964    0.7417 C   0  0  0  0  0  0  0  0  0  0  0  0
   -3.8565   -0.7446    0.9586 C   0  0  0  0  0  0  0  0  0  0  0  0
    0.9528   -0.6265    0.3438 C   0  0  0  0  0  0  0  0  0  0  0  0
    1.9327   -0.4595   -0.8137 C   0  0  0  0  0  0  0  0  0  0  0  0
   -5.1776   -0.6658    0.2379 C   0  0  0  0  0  0  0  0  0  0  0  0
    4.2636   -0.4195   -1.2109 C   0  0  0  0  0  0  0  0  0  0  0  0
    5.5899   -0.4961   -0.4573 C   0  0  0  0  0  0  0  0  0  0  0  0
   -2.7387   -1.4300   -0.7731 H   0  0  0  0  0  0  0  0  0  0  0  0
   -2.7540    0.3607   -0.5518 H   0  0  0  0  0  0  0  0  0  0  0  0
   -1.2860    0.1326    1.4934 H   0  0  0  0  0  0  0  0  0  0  0  0
   -1.2707   -1.6812    1.2702 H   0  0  0  0  0  0  0  0  0  0  0  0
   -3.7980    0.0702    1.7281 H   0  0  0  0  0  0  0  0  0  0  0  0
   -3.7835   -1.7217    1.5057 H   0  0  0  0  0  0  0  0  0  0  0  0
    1.0801    0.1981    1.0927 H   0  0  0  0  0  0  0  0  0  0  0  0
    1.1037   -1.6148    0.8516 H   0  0  0  0  0  0  0  0  0  0  0  0
    1.8065    0.5434   -1.2986 H   0  0  0  0  0  0  0  0  0  0  0  0
    1.7826   -1.2639   -1.5804 H   0  0  0  0  0  0  0  0  0  0  0  0
   -5.2793    0.3115   -0.2932 H   0  0  0  0  0  0  0  0  0  0  0  0
   -5.2645   -1.4846   -0.5167 H   0  0  0  0  0  0  0  0  0  0  0  0
   -6.0210   -0.7630    0.9633 H   0  0  0  0  0  0  0  0  0  0  0  0
    4.1841   -1.2488   -1.9632 H   0  0  0  0  0  0  0  0  0  0  0  0
    4.1540    0.5666   -1.7361 H   0  0  0  0  0  0  0  0  0  0  0  0
    6.3059   -1.1447   -1.0289 H   0  0  0  0  0  0  0  0  0  0  0  0
    5.4337   -0.9165    0.5738 H   0  0  0  0  0  0  0  0  0  0  0  0
    6.2973    1.1859   -1.1014 H   0  0  0  0  0  0  0  0  0  0  0  0
  1  5  1  0  0  0  0
  1  7  1  0  0  0  0
  2  8  1  0  0  0  0
  2 10  1  0  0  0  0
  3 11  1  0  0  0  0
  3 29  1  0  0  0  0
  4  5  1  0  0  0  0
  4  6  1  0  0  0  0
  4 12  1  0  0  0  0
  4 13  1  0  0  0  0
  5 14  1  0  0  0  0
  5 15  1  0  0  0  0
  6  9  1  0  0  0  0
  6 16  1  0  0  0  0
  6 17  1  0  0  0  0
  7  8  1  0  0  0  0
  7 18  1  0  0  0  0
  7 19  1  0  0  0  0
  8 20  1  0  0  0  0
  8 21  1  0  0  0  0
  9 22  1  0  0  0  0
  9 23  1  0  0  0  0
  9 24  1  0  0  0  0
 10 11  1  0  0  0  0
 10 25  1  0  0  0  0
 10 26  1  0  0  0  0
 11 27  1  0  0  0  0
 11 28  1  0  0  0  0
M  END