
 OpenBabel06261318113D
Structure written by MMmdl.
 23 22  0  0  0  0  0  0  0  0999 V2000
   -1.2653   -0.2285   -0.0251 O   0  0  0  0  0  0  0  0  0  0  0  0
    1.9424   -0.2285   -0.0251 O   0  0  0  0  0  0  0  0  0  0  0  0
   -2.7884    2.1985   -0.0251 O   0  0  0  0  0  0  0  0  0  0  0  0
   -0.2158   -1.0155   -0.5853 C   0  0  0  0  0  0  0  0  0  0  0  0
    0.8944   -1.0637    0.4595 C   0  0  0  0  0  0  0  0  0  0  0  0
   -2.3281   -0.0029   -0.9485 C   0  0  0  0  0  0  0  0  0  0  0  0
    2.9940   -0.0719    0.9270 C   0  0  0  0  0  0  0  0  0  0  0  0
   -3.3215    0.9079   -0.2343 C   0  0  0  0  0  0  0  0  0  0  0  0
    4.0372    0.8128    0.2853 C   0  0  0  0  0  0  0  0  0  0  0  0
   -0.6023   -2.0475   -0.7947 H   0  0  0  0  0  0  0  0  0  0  0  0
    0.1524   -0.5485   -1.5371 H   0  0  0  0  0  0  0  0  0  0  0  0
    1.2788   -2.1117    0.5724 H   0  0  0  0  0  0  0  0  0  0  0  0
    0.5251   -0.6899    1.4513 H   0  0  0  0  0  0  0  0  0  0  0  0
   -1.9300    0.4914   -1.8735 H   0  0  0  0  0  0  0  0  0  0  0  0
   -2.8091   -0.9789   -1.2183 H   0  0  0  0  0  0  0  0  0  0  0  0
    2.5852    0.3973    1.8618 H   0  0  0  0  0  0  0  0  0  0  0  0
    3.4194   -1.0793    1.1829 H   0  0  0  0  0  0  0  0  0  0  0  0
   -3.6235    0.4522    0.7461 H   0  0  0  0  0  0  0  0  0  0  0  0
   -4.2256    1.0654   -0.8800 H   0  0  0  0  0  0  0  0  0  0  0  0
    4.8801    0.9673    0.9996 H   0  0  0  0  0  0  0  0  0  0  0  0
    4.4283    0.3405   -0.6472 H   0  0  0  0  0  0  0  0  0  0  0  0
    3.5962    1.8027    0.0181 H   0  0  0  0  0  0  0  0  0  0  0  0
   -1.9547    2.0851    0.4500 H   0  0  0  0  0  0  0  0  0  0  0  0
  1  4  1  0  0  0  0
  1  6  1  0  0  0  0
  2  5  1  0  0  0  0
  2  7  1  0  0  0  0
  3  8  1  0  0  0  0
  3 23  1  0  0  0  0
  4  5  1  0  0  0  0
  4 10  1  0  0  0  0
  4 11  1  0  0  0  0
  5 12  1  0  0  0  0
  5 13  1  0  0  0  0
  6  8  1  0  0  0  0
  6 14  1  0  0  0  0
  6 15  1  0  0  0  0
  7  9  1  0  0  0  0
  7 16  1  0  0  0  0
  7 17  1  0  0  0  0
  8 18  1  0  0  0  0
  8 19  1  0  0  0  0
  9 20  1  0  0  0  0
  9 21  1  0  0  0  0
  9 22  1  0  0  0  0
M  END