
 OpenBabel06261318113D
Structure written by MMmdl.
 14 14  0  0  0  0  0  0  0  0999 V2000
   -1.1329   -2.6500   -0.0275 Cl  0  0  0  0  0  0  0  0  0  0  0  0
    1.9637   -2.6500   -0.0275 Cl  0  0  0  0  0  0  0  0  0  0  0  0
    3.5181    0.0653   -0.0275 Cl  0  0  0  0  0  0  0  0  0  0  0  0
   -2.3884    0.0745   -0.1429 N   0  0  0  0  0  0  0  0  0  0  0  0
   -1.0038    0.0465   -0.0478 C   0  0  0  0  0  0  0  0  0  0  0  0
   -0.2824   -1.1765   -0.0362 C   0  0  0  0  0  0  0  0  0  0  0  0
   -0.2640    1.2557   -0.0362 C   0  0  0  0  0  0  0  0  0  0  0  0
    1.1194   -1.1804   -0.0335 C   0  0  0  0  0  0  0  0  0  0  0  0
    1.1201    1.2423   -0.0329 C   0  0  0  0  0  0  0  0  0  0  0  0
    1.8220    0.0321   -0.0321 C   0  0  0  0  0  0  0  0  0  0  0  0
   -0.7937    2.2208   -0.0402 H   0  0  0  0  0  0  0  0  0  0  0  0
    1.6749    2.1947   -0.0300 H   0  0  0  0  0  0  0  0  0  0  0  0
   -2.8224    0.9169    0.1561 H   0  0  0  0  0  0  0  0  0  0  0  0
   -2.8683   -0.7591    0.1100 H   0  0  0  0  0  0  0  0  0  0  0  0
  1  6  1  0  0  0  0
  2  8  1  0  0  0  0
  3 10  1  0  0  0  0
  4  5  1  0  0  0  0
  4 13  1  0  0  0  0
  4 14  1  0  0  0  0
  5  6  2  0  0  0  0
  5  7  1  0  0  0  0
  6  8  1  0  0  0  0
  7  9  2  0  0  0  0
  7 11  1  0  0  0  0
  8 10  2  0  0  0  0
  9 10  1  0  0  0  0
  9 12  1  0  0  0  0
M  END