
 OpenBabel06261318113D
Structure written by MMmdl.
 22 22  0  0  0  0  0  0  0  0999 V2000
   -2.8078    0.6044    0.0372 O   0  0  0  0  0  0  0  0  0  0  0  0
    0.8473    0.6044    0.0372 C   0  0  0  0  0  0  0  0  0  0  0  0
   -0.4773    1.0710    0.0372 C   0  0  0  0  0  0  0  0  0  0  0  0
    0.0730   -1.7017    0.0365 C   0  0  0  0  0  0  0  0  0  0  0  0
    1.1131   -0.7685    0.0366 C   0  0  0  0  0  0  0  0  0  0  0  0
   -1.5164    0.1198    0.0367 C   0  0  0  0  0  0  0  0  0  0  0  0
   -1.2506   -1.2551    0.0356 C   0  0  0  0  0  0  0  0  0  0  0  0
    1.9687    1.5738    0.0336 C   0  0  0  0  0  0  0  0  0  0  0  0
   -0.7692    2.5217    0.0410 C   0  0  0  0  0  0  0  0  0  0  0  0
    0.3686   -3.1532    0.0517 C   0  0  0  0  0  0  0  0  0  0  0  0
    2.1558   -1.1197    0.0356 H   0  0  0  0  0  0  0  0  0  0  0  0
   -2.0788   -1.9776    0.0336 H   0  0  0  0  0  0  0  0  0  0  0  0
    1.9615    2.1663   -0.9163 H   0  0  0  0  0  0  0  0  0  0  0  0
    1.8657    2.2890    0.8883 H   0  0  0  0  0  0  0  0  0  0  0  0
    2.9551    1.0564    0.1204 H   0  0  0  0  0  0  0  0  0  0  0  0
   -0.2346    3.0268   -0.8027 H   0  0  0  0  0  0  0  0  0  0  0  0
   -1.8648    2.7162   -0.0645 H   0  0  0  0  0  0  0  0  0  0  0  0
   -0.4182    2.9814    0.9996 H   0  0  0  0  0  0  0  0  0  0  0  0
    0.4418   -3.5148    1.1087 H   0  0  0  0  0  0  0  0  0  0  0  0
   -0.4381   -3.7325   -0.4610 H   0  0  0  0  0  0  0  0  0  0  0  0
    1.3389   -3.3689   -0.4596 H   0  0  0  0  0  0  0  0  0  0  0  0
   -3.4083   -0.1548    0.0267 H   0  0  0  0  0  0  0  0  0  0  0  0
  1  6  1  0  0  0  0
  1 22  1  0  0  0  0
  2  3  2  0  0  0  0
  2  5  1  0  0  0  0
  2  8  1  0  0  0  0
  3  6  1  0  0  0  0
  3  9  1  0  0  0  0
  4  5  2  0  0  0  0
  4  7  1  0  0  0  0
  4 10  1  0  0  0  0
  5 11  1  0  0  0  0
  6  7  2  0  0  0  0
  7 12  1  0  0  0  0
  8 13  1  0  0  0  0
  8 14  1  0  0  0  0
  8 15  1  0  0  0  0
  9 16  1  0  0  0  0
  9 17  1  0  0  0  0
  9 18  1  0  0  0  0
 10 19  1  0  0  0  0
 10 20  1  0  0  0  0
 10 21  1  0  0  0  0
M  END