
 OpenBabel06261318113D
Structure written by MMmdl.
 14 14  0  0  0  0  0  0  0  0999 V2000
   -2.9090    0.3931   -0.0380 Cl  0  0  0  0  0  0  0  0  0  0  0  0
    3.2813    0.3931   -0.0380 Cl  0  0  0  0  0  0  0  0  0  0  0  0
    1.6688    3.1075   -0.0380 Cl  0  0  0  0  0  0  0  0  0  0  0  0
   -1.1647   -2.0796   -0.1560 N   0  0  0  0  0  0  0  0  0  0  0  0
   -0.5042   -0.8632   -0.0604 C   0  0  0  0  0  0  0  0  0  0  0  0
   -1.2066    0.3712   -0.0478 C   0  0  0  0  0  0  0  0  0  0  0  0
    0.9109   -0.8153   -0.0494 C   0  0  0  0  0  0  0  0  0  0  0  0
    1.5844    0.4031   -0.0451 C   0  0  0  0  0  0  0  0  0  0  0  0
   -0.5248    1.5851   -0.0446 C   0  0  0  0  0  0  0  0  0  0  0  0
    0.8715    1.6115   -0.0435 C   0  0  0  0  0  0  0  0  0  0  0  0
    1.4894   -1.7529   -0.0547 H   0  0  0  0  0  0  0  0  0  0  0  0
   -1.0907    2.5318   -0.0415 H   0  0  0  0  0  0  0  0  0  0  0  0
   -0.6458   -2.8772    0.1301 H   0  0  0  0  0  0  0  0  0  0  0  0
   -2.1243   -2.0838    0.1054 H   0  0  0  0  0  0  0  0  0  0  0  0
  1  6  1  0  0  0  0
  2  8  1  0  0  0  0
  3 10  1  0  0  0  0
  4  5  1  0  0  0  0
  4 13  1  0  0  0  0
  4 14  1  0  0  0  0
  5  6  2  0  0  0  0
  5  7  1  0  0  0  0
  6  9  1  0  0  0  0
  7  8  2  0  0  0  0
  7 11  1  0  0  0  0
  8 10  1  0  0  0  0
  9 10  2  0  0  0  0
  9 12  1  0  0  0  0
M  END