
 OpenBabel06261318113D
Structure written by MMmdl.
 13 13  0  0  0  0  0  0  0  0999 V2000
   -3.0817    0.2008    0.0003 Cl  0  0  0  0  0  0  0  0  0  0  0  0
    3.1168    0.2008    0.0003 Cl  0  0  0  0  0  0  0  0  0  0  0  0
    1.4968    2.9116    0.0003 Cl  0  0  0  0  0  0  0  0  0  0  0  0
   -1.3629   -2.2082    0.0009 O   0  0  0  0  0  0  0  0  0  0  0  0
   -0.6590   -1.0293    0.0007 C   0  0  0  0  0  0  0  0  0  0  0  0
   -1.3873    0.1787    0.0004 C   0  0  0  0  0  0  0  0  0  0  0  0
    0.7425   -1.0087    0.0006 C   0  0  0  0  0  0  0  0  0  0  0  0
    1.4225    0.2105    0.0004 C   0  0  0  0  0  0  0  0  0  0  0  0
   -0.6959    1.3912    0.0003 C   0  0  0  0  0  0  0  0  0  0  0  0
    0.7024    1.4143    0.0003 C   0  0  0  0  0  0  0  0  0  0  0  0
    1.3043   -1.9554    0.0008 H   0  0  0  0  0  0  0  0  0  0  0  0
   -1.2580    2.3404    0.0001 H   0  0  0  0  0  0  0  0  0  0  0  0
   -0.7251   -2.9386    0.0012 H   0  0  0  0  0  0  0  0  0  0  0  0
  1  6  1  0  0  0  0
  2  8  1  0  0  0  0
  3 10  1  0  0  0  0
  4  5  1  0  0  0  0
  4 13  1  0  0  0  0
  5  6  2  0  0  0  0
  5  7  1  0  0  0  0
  6  9  1  0  0  0  0
  7  8  2  0  0  0  0
  7 11  1  0  0  0  0
  8 10  1  0  0  0  0
  9 10  2  0  0  0  0
  9 12  1  0  0  0  0
M  END