
 OpenBabel06261318113D
Structure written by MMmdl.
 14 14  0  0  0  0  0  0  0  0999 V2000
   -2.7342   -1.0181    0.0351 Cl  0  0  0  0  0  0  0  0  0  0  0  0
    2.6859   -1.0181    0.0351 Cl  0  0  0  0  0  0  0  0  0  0  0  0
   -0.0242    3.5756    0.0351 Cl  0  0  0  0  0  0  0  0  0  0  0  0
   -0.0241   -2.3322    0.1526 N   0  0  0  0  0  0  0  0  0  0  0  0
   -0.0241   -0.9534    0.0581 C   0  0  0  0  0  0  0  0  0  0  0  0
   -1.2356   -0.2082    0.0445 C   0  0  0  0  0  0  0  0  0  0  0  0
    1.1873   -0.2082    0.0445 C   0  0  0  0  0  0  0  0  0  0  0  0
   -1.2358    1.1838    0.0403 C   0  0  0  0  0  0  0  0  0  0  0  0
    1.1875    1.1838    0.0403 C   0  0  0  0  0  0  0  0  0  0  0  0
   -0.0242    1.8775    0.0395 C   0  0  0  0  0  0  0  0  0  0  0  0
   -2.1912    1.7339    0.0365 H   0  0  0  0  0  0  0  0  0  0  0  0
    2.1429    1.7340    0.0364 H   0  0  0  0  0  0  0  0  0  0  0  0
   -0.8662   -2.7996   -0.0923 H   0  0  0  0  0  0  0  0  0  0  0  0
    0.8180   -2.7996   -0.0924 H   0  0  0  0  0  0  0  0  0  0  0  0
  1  6  1  0  0  0  0
  2  7  1  0  0  0  0
  3 10  1  0  0  0  0
  4  5  1  0  0  0  0
  4 13  1  0  0  0  0
  4 14  1  0  0  0  0
  5  6  2  0  0  0  0
  5  7  1  0  0  0  0
  6  8  1  0  0  0  0
  7  9  2  0  0  0  0
  8 10  2  0  0  0  0
  8 11  1  0  0  0  0
  9 10  1  0  0  0  0
  9 12  1  0  0  0  0
M  END