
 OpenBabel06261318113D
Structure written by MMmdl.
 14 14  0  0  0  0  0  0  0  0999 V2000
   -2.2711   -1.7952    0.0368 Cl  0  0  0  0  0  0  0  0  0  0  0  0
    3.0658   -1.7952    0.0368 Cl  0  0  0  0  0  0  0  0  0  0  0  0
   -2.0128    1.2230    0.0368 N   0  0  0  0  0  0  0  0  0  0  0  0
   -0.8273    0.5011   -0.0322 C   0  0  0  0  0  0  0  0  0  0  0  0
   -0.8110   -0.9172    0.0119 C   0  0  0  0  0  0  0  0  0  0  0  0
    0.4221    1.1709   -0.0696 C   0  0  0  0  0  0  0  0  0  0  0  0
    0.3901   -1.6251    0.0371 C   0  0  0  0  0  0  0  0  0  0  0  0
    1.6145    0.4642   -0.0453 C   0  0  0  0  0  0  0  0  0  0  0  0
    1.6013   -0.9336    0.0085 C   0  0  0  0  0  0  0  0  0  0  0  0
    0.4499    2.2707   -0.1085 H   0  0  0  0  0  0  0  0  0  0  0  0
    0.3782   -2.7264    0.0778 H   0  0  0  0  0  0  0  0  0  0  0  0
    2.5721    1.0077   -0.0693 H   0  0  0  0  0  0  0  0  0  0  0  0
   -2.8403    0.7293   -0.2115 H   0  0  0  0  0  0  0  0  0  0  0  0
   -1.9652    2.1533   -0.3104 H   0  0  0  0  0  0  0  0  0  0  0  0
  1  5  1  0  0  0  0
  2  9  1  0  0  0  0
  3  4  1  0  0  0  0
  3 13  1  0  0  0  0
  3 14  1  0  0  0  0
  4  5  2  0  0  0  0
  4  6  1  0  0  0  0
  5  7  1  0  0  0  0
  6  8  2  0  0  0  0
  6 10  1  0  0  0  0
  7  9  2  0  0  0  0
  7 11  1  0  0  0  0
  8  9  1  0  0  0  0
  8 12  1  0  0  0  0
M  END