
 OpenBabel06261318113D
Structure written by MMmdl.
 13 13  0  0  0  0  0  0  0  0999 V2000
   -2.5155   -1.7138   -0.0009 Cl  0  0  0  0  0  0  0  0  0  0  0  0
    2.8199   -1.7138   -0.0009 Cl  0  0  0  0  0  0  0  0  0  0  0  0
   -2.2449    1.2333   -0.0009 O   0  0  0  0  0  0  0  0  0  0  0  0
   -1.0420    0.5693   -0.0007 C   0  0  0  0  0  0  0  0  0  0  0  0
   -1.0620   -0.8402   -0.0008 C   0  0  0  0  0  0  0  0  0  0  0  0
    0.1825    1.2564   -0.0003 C   0  0  0  0  0  0  0  0  0  0  0  0
    0.1462   -1.5429   -0.0009 C   0  0  0  0  0  0  0  0  0  0  0  0
    1.3799    0.5504   -0.0002 C   0  0  0  0  0  0  0  0  0  0  0  0
    1.3581   -0.8478   -0.0007 C   0  0  0  0  0  0  0  0  0  0  0  0
    0.1915    2.3562    0.0001 H   0  0  0  0  0  0  0  0  0  0  0  0
    0.1383   -2.6452   -0.0012 H   0  0  0  0  0  0  0  0  0  0  0  0
    2.3380    1.0928    0.0001 H   0  0  0  0  0  0  0  0  0  0  0  0
   -2.0597    2.1847   -0.0006 H   0  0  0  0  0  0  0  0  0  0  0  0
  1  5  1  0  0  0  0
  2  9  1  0  0  0  0
  3  4  1  0  0  0  0
  3 13  1  0  0  0  0
  4  5  2  0  0  0  0
  4  6  1  0  0  0  0
  5  7  1  0  0  0  0
  6  8  2  0  0  0  0
  6 10  1  0  0  0  0
  7  9  2  0  0  0  0
  7 11  1  0  0  0  0
  8  9  1  0  0  0  0
  8 12  1  0  0  0  0
M  END