
 OpenBabel06261318113D
Structure written by MMmdl.
 15 15  0  0  0  0  0  0  0  0999 V2000
   -2.1083   -1.9046   -0.0002 Cl  0  0  0  0  0  0  0  0  0  0  0  0
    3.2281   -1.9046   -0.0002 Cl  0  0  0  0  0  0  0  0  0  0  0  0
   -0.6577    0.3739   -0.0002 C   0  0  0  0  0  0  0  0  0  0  0  0
   -0.6485   -1.0304   -0.0002 C   0  0  0  0  0  0  0  0  0  0  0  0
    0.5696    1.0488   -0.0005 C   0  0  0  0  0  0  0  0  0  0  0  0
   -1.9266    1.1363    0.0002 C   0  0  0  0  0  0  0  0  0  0  0  0
    0.5532   -1.7449   -0.0003 C   0  0  0  0  0  0  0  0  0  0  0  0
    1.7748    0.3529   -0.0006 C   0  0  0  0  0  0  0  0  0  0  0  0
    1.7621   -1.0454   -0.0004 C   0  0  0  0  0  0  0  0  0  0  0  0
    0.5802    2.1499   -0.0005 H   0  0  0  0  0  0  0  0  0  0  0  0
   -2.5321    0.8820   -0.9062 H   0  0  0  0  0  0  0  0  0  0  0  0
   -2.5326    0.8802    0.9058 H   0  0  0  0  0  0  0  0  0  0  0  0
   -1.7370    2.2375    0.0014 H   0  0  0  0  0  0  0  0  0  0  0  0
    0.5454   -2.8463   -0.0003 H   0  0  0  0  0  0  0  0  0  0  0  0
    2.7295    0.9006   -0.0007 H   0  0  0  0  0  0  0  0  0  0  0  0
  1  4  1  0  0  0  0
  2  9  1  0  0  0  0
  3  4  2  0  0  0  0
  3  5  1  0  0  0  0
  3  6  1  0  0  0  0
  4  7  1  0  0  0  0
  5  8  2  0  0  0  0
  5 10  1  0  0  0  0
  6 11  1  0  0  0  0
  6 12  1  0  0  0  0
  6 13  1  0  0  0  0
  7  9  2  0  0  0  0
  7 14  1  0  0  0  0
  8  9  1  0  0  0  0
  8 15  1  0  0  0  0
M  END