
 OpenBabel06261318113D
Structure written by MMmdl.
 19 19  0  0  0  0  0  0  0  0999 V2000
   -2.6712   -1.0994   -0.0146 O   0  0  0  0  0  0  0  0  0  0  0  0
   -0.2974   -1.0994   -0.0146 C   0  0  0  0  0  0  0  0  0  0  0  0
    0.9246    1.0091   -0.0146 C   0  0  0  0  0  0  0  0  0  0  0  0
    0.9041   -0.3912   -0.0150 C   0  0  0  0  0  0  0  0  0  0  0  0
   -1.5038   -0.3674   -0.0146 C   0  0  0  0  0  0  0  0  0  0  0  0
   -0.2832    1.7132   -0.0158 C   0  0  0  0  0  0  0  0  0  0  0  0
   -1.4980    1.0328   -0.0157 C   0  0  0  0  0  0  0  0  0  0  0  0
   -0.3265   -2.5781   -0.0138 C   0  0  0  0  0  0  0  0  0  0  0  0
    2.2175    1.7310   -0.0005 C   0  0  0  0  0  0  0  0  0  0  0  0
    1.8556   -0.9455   -0.0163 H   0  0  0  0  0  0  0  0  0  0  0  0
   -0.2767    2.8134   -0.0176 H   0  0  0  0  0  0  0  0  0  0  0  0
   -2.4457    1.5891   -0.0169 H   0  0  0  0  0  0  0  0  0  0  0  0
   -0.8501   -2.9491    0.9031 H   0  0  0  0  0  0  0  0  0  0  0  0
   -0.8947   -2.9498   -0.9036 H   0  0  0  0  0  0  0  0  0  0  0  0
    0.7046   -3.0064   -0.0388 H   0  0  0  0  0  0  0  0  0  0  0  0
    2.9705    1.2097   -0.6418 H   0  0  0  0  0  0  0  0  0  0  0  0
    2.0993    2.7774   -0.3750 H   0  0  0  0  0  0  0  0  0  0  0  0
    2.6198    1.7760    1.0431 H   0  0  0  0  0  0  0  0  0  0  0  0
   -3.4112   -0.4752   -0.0175 H   0  0  0  0  0  0  0  0  0  0  0  0
  1  5  1  0  0  0  0
  1 19  1  0  0  0  0
  2  4  2  0  0  0  0
  2  5  1  0  0  0  0
  2  8  1  0  0  0  0
  3  4  1  0  0  0  0
  3  6  2  0  0  0  0
  3  9  1  0  0  0  0
  4 10  1  0  0  0  0
  5  7  2  0  0  0  0
  6  7  1  0  0  0  0
  6 11  1  0  0  0  0
  7 12  1  0  0  0  0
  8 13  1  0  0  0  0
  8 14  1  0  0  0  0
  8 15  1  0  0  0  0
  9 16  1  0  0  0  0
  9 17  1  0  0  0  0
  9 18  1  0  0  0  0
M  END