
 OpenBabel06261318113D
Structure written by MMmdl.
 14 14  0  0  0  0  0  0  0  0999 V2000
   -2.8842   -0.4604   -0.0368 Cl  0  0  0  0  0  0  0  0  0  0  0  0
    3.3008   -0.4604   -0.0368 Cl  0  0  0  0  0  0  0  0  0  0  0  0
   -1.1552    2.0262   -0.0368 N   0  0  0  0  0  0  0  0  0  0  0  0
   -0.4862    0.8082    0.0017 C   0  0  0  0  0  0  0  0  0  0  0  0
   -1.1809   -0.4286   -0.0462 C   0  0  0  0  0  0  0  0  0  0  0  0
    0.9303    0.7713    0.0114 C   0  0  0  0  0  0  0  0  0  0  0  0
    1.5996   -0.4473   -0.0442 C   0  0  0  0  0  0  0  0  0  0  0  0
   -0.4882   -1.6378   -0.1029 C   0  0  0  0  0  0  0  0  0  0  0  0
    0.9026   -1.6581   -0.1027 C   0  0  0  0  0  0  0  0  0  0  0  0
    1.5027    1.7109    0.0525 H   0  0  0  0  0  0  0  0  0  0  0  0
   -1.0471   -2.5863   -0.1469 H   0  0  0  0  0  0  0  0  0  0  0  0
    1.4426   -2.6148   -0.1475 H   0  0  0  0  0  0  0  0  0  0  0  0
   -0.6411    2.8052    0.3058 H   0  0  0  0  0  0  0  0  0  0  0  0
   -2.1116    2.0071    0.2370 H   0  0  0  0  0  0  0  0  0  0  0  0
  1  5  1  0  0  0  0
  2  7  1  0  0  0  0
  3  4  1  0  0  0  0
  3 13  1  0  0  0  0
  3 14  1  0  0  0  0
  4  5  2  0  0  0  0
  4  6  1  0  0  0  0
  5  8  1  0  0  0  0
  6  7  2  0  0  0  0
  6 10  1  0  0  0  0
  7  9  1  0  0  0  0
  8  9  2  0  0  0  0
  8 11  1  0  0  0  0
  9 12  1  0  0  0  0
M  END