
 OpenBabel06261318113D
Structure written by MMmdl.
 13 13  0  0  0  0  0  0  0  0999 V2000
   -3.0569   -0.2728    0.0003 Cl  0  0  0  0  0  0  0  0  0  0  0  0
    3.1366   -0.2728    0.0003 Cl  0  0  0  0  0  0  0  0  0  0  0  0
   -1.3516    2.1463    0.0003 O   0  0  0  0  0  0  0  0  0  0  0  0
   -0.6409    0.9704    0.0003 C   0  0  0  0  0  0  0  0  0  0  0  0
   -1.3616   -0.2412    0.0002 C   0  0  0  0  0  0  0  0  0  0  0  0
    0.7624    0.9610    0.0003 C   0  0  0  0  0  0  0  0  0  0  0  0
    1.4381   -0.2595    0.0002 C   0  0  0  0  0  0  0  0  0  0  0  0
   -0.6592   -1.4501    0.0000 C   0  0  0  0  0  0  0  0  0  0  0  0
    0.7333   -1.4669    0.0000 C   0  0  0  0  0  0  0  0  0  0  0  0
    1.3179    1.9106    0.0004 H   0  0  0  0  0  0  0  0  0  0  0  0
   -1.2140   -2.4022   -0.0002 H   0  0  0  0  0  0  0  0  0  0  0  0
    1.2711   -2.4267   -0.0002 H   0  0  0  0  0  0  0  0  0  0  0  0
   -0.7170    2.8791    0.0005 H   0  0  0  0  0  0  0  0  0  0  0  0
  1  5  1  0  0  0  0
  2  7  1  0  0  0  0
  3  4  1  0  0  0  0
  3 13  1  0  0  0  0
  4  5  2  0  0  0  0
  4  6  1  0  0  0  0
  5  8  1  0  0  0  0
  6  7  2  0  0  0  0
  6 10  1  0  0  0  0
  7  9  1  0  0  0  0
  8  9  2  0  0  0  0
  8 11  1  0  0  0  0
  9 12  1  0  0  0  0
M  END