
 OpenBabel06261318113D
Structure written by MMmdl.
 19 19  0  0  0  0  0  0  0  0999 V2000
   -2.1977   -1.3646   -0.0149 O   0  0  0  0  0  0  0  0  0  0  0  0
    0.1749   -1.3646   -0.0149 C   0  0  0  0  0  0  0  0  0  0  0  0
    0.1830    1.4611   -0.0149 C   0  0  0  0  0  0  0  0  0  0  0  0
   -1.0305   -0.6319   -0.0146 C   0  0  0  0  0  0  0  0  0  0  0  0
   -1.0312    0.7679   -0.0150 C   0  0  0  0  0  0  0  0  0  0  0  0
    1.3745   -0.6502   -0.0163 C   0  0  0  0  0  0  0  0  0  0  0  0
    1.3835    0.7433   -0.0166 C   0  0  0  0  0  0  0  0  0  0  0  0
    0.1486   -2.8428   -0.0131 C   0  0  0  0  0  0  0  0  0  0  0  0
    0.1931    2.9421    0.0011 C   0  0  0  0  0  0  0  0  0  0  0  0
   -1.9821    1.3193   -0.0161 H   0  0  0  0  0  0  0  0  0  0  0  0
    2.3280   -1.2006   -0.0178 H   0  0  0  0  0  0  0  0  0  0  0  0
    2.3415    1.2832   -0.0189 H   0  0  0  0  0  0  0  0  0  0  0  0
   -0.3445   -3.2150    0.9202 H   0  0  0  0  0  0  0  0  0  0  0  0
   -0.4467   -3.2164   -0.8842 H   0  0  0  0  0  0  0  0  0  0  0  0
    1.1794   -3.2687   -0.0704 H   0  0  0  0  0  0  0  0  0  0  0  0
   -0.7036    3.3554   -0.5228 H   0  0  0  0  0  0  0  0  0  0  0  0
    0.1819    3.3108    1.0581 H   0  0  0  0  0  0  0  0  0  0  0  0
    1.1100    3.3411   -0.4985 H   0  0  0  0  0  0  0  0  0  0  0  0
   -2.9386   -0.7415   -0.0191 H   0  0  0  0  0  0  0  0  0  0  0  0
  1  4  1  0  0  0  0
  1 19  1  0  0  0  0
  2  4  2  0  0  0  0
  2  6  1  0  0  0  0
  2  8  1  0  0  0  0
  3  5  2  0  0  0  0
  3  7  1  0  0  0  0
  3  9  1  0  0  0  0
  4  5  1  0  0  0  0
  5 10  1  0  0  0  0
  6  7  2  0  0  0  0
  6 11  1  0  0  0  0
  7 12  1  0  0  0  0
  8 13  1  0  0  0  0
  8 14  1  0  0  0  0
  8 15  1  0  0  0  0
  9 16  1  0  0  0  0
  9 17  1  0  0  0  0
  9 18  1  0  0  0  0
M  END