
 OpenBabel06261318113D
Structure written by MMmdl.
 19 19  0  0  0  0  0  0  0  0999 V2000
   -1.8006   -1.0029   -0.0003 O   0  0  0  0  0  0  0  0  0  0  0  0
    0.6472   -1.0029   -0.0003 C   0  0  0  0  0  0  0  0  0  0  0  0
   -0.6715    1.0707   -0.0003 C   0  0  0  0  0  0  0  0  0  0  0  0
   -0.5931   -0.3390   -0.0003 C   0  0  0  0  0  0  0  0  0  0  0  0
    1.8155   -0.2331   -0.0002 C   0  0  0  0  0  0  0  0  0  0  0  0
    0.5159    1.8031   -0.0003 C   0  0  0  0  0  0  0  0  0  0  0  0
    1.7519    1.1570   -0.0003 C   0  0  0  0  0  0  0  0  0  0  0  0
    0.7250   -2.4814   -0.0004 C   0  0  0  0  0  0  0  0  0  0  0  0
   -1.9925    1.7363   -0.0004 C   0  0  0  0  0  0  0  0  0  0  0  0
    2.7939   -0.7370   -0.0002 H   0  0  0  0  0  0  0  0  0  0  0  0
    0.4723    2.9029   -0.0004 H   0  0  0  0  0  0  0  0  0  0  0  0
    2.6786    1.7486   -0.0002 H   0  0  0  0  0  0  0  0  0  0  0  0
    0.2243   -2.9022    0.9082 H   0  0  0  0  0  0  0  0  0  0  0  0
    0.2221   -2.9023   -0.9078 H   0  0  0  0  0  0  0  0  0  0  0  0
    1.7876   -2.8275   -0.0017 H   0  0  0  0  0  0  0  0  0  0  0  0
   -2.5759    1.4279   -0.9044 H   0  0  0  0  0  0  0  0  0  0  0  0
   -2.5767    1.4265    0.9026 H   0  0  0  0  0  0  0  0  0  0  0  0
   -1.8885    2.8482    0.0005 H   0  0  0  0  0  0  0  0  0  0  0  0
   -1.6252   -1.9546    0.0003 H   0  0  0  0  0  0  0  0  0  0  0  0
  1  4  1  0  0  0  0
  1 19  1  0  0  0  0
  2  4  2  0  0  0  0
  2  5  1  0  0  0  0
  2  8  1  0  0  0  0
  3  4  1  0  0  0  0
  3  6  2  0  0  0  0
  3  9  1  0  0  0  0
  5  7  2  0  0  0  0
  5 10  1  0  0  0  0
  6  7  1  0  0  0  0
  6 11  1  0  0  0  0
  7 12  1  0  0  0  0
  8 13  1  0  0  0  0
  8 14  1  0  0  0  0
  8 15  1  0  0  0  0
  9 16  1  0  0  0  0
  9 17  1  0  0  0  0
  9 18  1  0  0  0  0
M  END