
 OpenBabel06261318113D
Structure written by MMmdl.
 22 21  0  0  0  0  0  0  0  0999 V2000
    1.0361   -0.4743   -0.2218 O   0  0  0  0  0  0  0  0  0  0  0  0
    3.8838   -0.4743   -0.2218 O   0  0  0  0  0  0  0  0  0  0  0  0
   -0.8869    0.8984   -0.2218 C   0  0  0  0  0  0  0  0  0  0  0  0
   -2.2218    1.1830    0.4312 C   0  0  0  0  0  0  0  0  0  0  0  0
   -0.2041   -0.2760    0.4557 C   0  0  0  0  0  0  0  0  0  0  0  0
   -2.9163    2.3472   -0.2269 C   0  0  0  0  0  0  0  0  0  0  0  0
    1.7793   -1.5648    0.3172 C   0  0  0  0  0  0  0  0  0  0  0  0
    3.0871   -1.6142   -0.4662 C   0  0  0  0  0  0  0  0  0  0  0  0
   -1.0291    0.6683   -1.3097 H   0  0  0  0  0  0  0  0  0  0  0  0
   -0.2247    1.8006   -0.1576 H   0  0  0  0  0  0  0  0  0  0  0  0
   -2.0672    1.4033    1.5207 H   0  0  0  0  0  0  0  0  0  0  0  0
   -2.8727    0.2710    0.3675 H   0  0  0  0  0  0  0  0  0  0  0  0
   -0.0091   -0.0593    1.5399 H   0  0  0  0  0  0  0  0  0  0  0  0
   -0.8276   -1.2062    0.3758 H   0  0  0  0  0  0  0  0  0  0  0  0
    1.9753   -1.3879    1.4075 H   0  0  0  0  0  0  0  0  0  0  0  0
    1.2049   -2.5188    0.1873 H   0  0  0  0  0  0  0  0  0  0  0  0
   -2.2935    3.2714   -0.1520 H   0  0  0  0  0  0  0  0  0  0  0  0
   -3.1008    2.1364   -1.3081 H   0  0  0  0  0  0  0  0  0  0  0  0
   -3.8984    2.5421    0.2676 H   0  0  0  0  0  0  0  0  0  0  0  0
    2.8732   -1.7073   -1.5641 H   0  0  0  0  0  0  0  0  0  0  0  0
    3.7056   -2.4839   -0.1195 H   0  0  0  0  0  0  0  0  0  0  0  0
    3.3461    0.2969   -0.4441 H   0  0  0  0  0  0  0  0  0  0  0  0
  1  5  1  0  0  0  0
  1  7  1  0  0  0  0
  2  8  1  0  0  0  0
  2 22  1  0  0  0  0
  3  4  1  0  0  0  0
  3  5  1  0  0  0  0
  3  9  1  0  0  0  0
  3 10  1  0  0  0  0
  4  6  1  0  0  0  0
  4 11  1  0  0  0  0
  4 12  1  0  0  0  0
  5 13  1  0  0  0  0
  5 14  1  0  0  0  0
  6 17  1  0  0  0  0
  6 18  1  0  0  0  0
  6 19  1  0  0  0  0
  7  8  1  0  0  0  0
  7 15  1  0  0  0  0
  7 16  1  0  0  0  0
  8 20  1  0  0  0  0
  8 21  1  0  0  0  0
M  END