
 OpenBabel06261318113D
Structure written by MMmdl.
 16 16  0  0  0  0  0  0  0  0999 V2000
   -2.1757   -0.7119   -0.0004 O   0  0  0  0  0  0  0  0  0  0  0  0
    0.1971   -0.7119   -0.0004 C   0  0  0  0  0  0  0  0  0  0  0  0
   -1.0089    0.0209   -0.0004 C   0  0  0  0  0  0  0  0  0  0  0  0
    1.3990   -0.0012   -0.0008 C   0  0  0  0  0  0  0  0  0  0  0  0
    0.1681   -2.1903    0.0001 C   0  0  0  0  0  0  0  0  0  0  0  0
   -1.0066    1.4219   -0.0008 C   0  0  0  0  0  0  0  0  0  0  0  0
    1.4088    1.3939   -0.0013 C   0  0  0  0  0  0  0  0  0  0  0  0
    0.2091    2.1026   -0.0013 C   0  0  0  0  0  0  0  0  0  0  0  0
    2.3509   -0.5541   -0.0009 H   0  0  0  0  0  0  0  0  0  0  0  0
   -0.3764   -2.5617    0.9047 H   0  0  0  0  0  0  0  0  0  0  0  0
   -0.3794   -2.5621   -0.9025 H   0  0  0  0  0  0  0  0  0  0  0  0
    1.1996   -2.6183   -0.0015 H   0  0  0  0  0  0  0  0  0  0  0  0
   -1.9556    1.9758   -0.0008 H   0  0  0  0  0  0  0  0  0  0  0  0
    2.3665    1.9338   -0.0017 H   0  0  0  0  0  0  0  0  0  0  0  0
    0.2172    3.2025   -0.0017 H   0  0  0  0  0  0  0  0  0  0  0  0
   -2.9166   -0.0887   -0.0002 H   0  0  0  0  0  0  0  0  0  0  0  0
  1  3  1  0  0  0  0
  1 16  1  0  0  0  0
  2  3  2  0  0  0  0
  2  4  1  0  0  0  0
  2  5  1  0  0  0  0
  3  6  1  0  0  0  0
  4  7  2  0  0  0  0
  4  9  1  0  0  0  0
  5 10  1  0  0  0  0
  5 11  1  0  0  0  0
  5 12  1  0  0  0  0
  6  8  2  0  0  0  0
  6 13  1  0  0  0  0
  7  8  1  0  0  0  0
  7 14  1  0  0  0  0
  8 15  1  0  0  0  0
M  END