
 OpenBabel06261318113D
Structure written by MMmdl.
 14 14  0  0  0  0  0  0  0  0999 V2000
   -1.3678   -3.0337   -0.0361 Cl  0  0  0  0  0  0  0  0  0  0  0  0
    1.7907   -3.0337   -0.0361 Cl  0  0  0  0  0  0  0  0  0  0  0  0
   -1.2028    2.0619   -0.0361 N   0  0  0  0  0  0  0  0  0  0  0  0
   -0.5056    0.8563    0.0320 C   0  0  0  0  0  0  0  0  0  0  0  0
   -1.1963   -0.3771    0.0145 C   0  0  0  0  0  0  0  0  0  0  0  0
    0.9107    0.8377    0.0395 C   0  0  0  0  0  0  0  0  0  0  0  0
   -0.4908   -1.5795   -0.0102 C   0  0  0  0  0  0  0  0  0  0  0  0
    1.5990   -0.3657    0.0146 C   0  0  0  0  0  0  0  0  0  0  0  0
    0.9107   -1.5837   -0.0098 C   0  0  0  0  0  0  0  0  0  0  0  0
   -2.2973   -0.3957    0.0100 H   0  0  0  0  0  0  0  0  0  0  0  0
    1.4760    1.7817    0.0552 H   0  0  0  0  0  0  0  0  0  0  0  0
    2.7009   -0.3626    0.0152 H   0  0  0  0  0  0  0  0  0  0  0  0
   -0.7053    2.8554    0.2988 H   0  0  0  0  0  0  0  0  0  0  0  0
   -2.1500    2.0199    0.2649 H   0  0  0  0  0  0  0  0  0  0  0  0
  1  7  1  0  0  0  0
  2  9  1  0  0  0  0
  3  4  1  0  0  0  0
  3 13  1  0  0  0  0
  3 14  1  0  0  0  0
  4  5  2  0  0  0  0
  4  6  1  0  0  0  0
  5  7  1  0  0  0  0
  5 10  1  0  0  0  0
  6  8  2  0  0  0  0
  6 11  1  0  0  0  0
  7  9  2  0  0  0  0
  8  9  1  0  0  0  0
  8 12  1  0  0  0  0
M  END