
 OpenBabel06261318113D
Structure written by MMmdl.
 20 20  0  0  0  0  0  0  0  0999 V2000
   -3.1869   -0.6393   -0.0110 N   0  0  0  0  0  0  0  0  0  0  0  0
    0.5343   -0.6393   -0.0110 C   0  0  0  0  0  0  0  0  0  0  0  0
    0.8071    0.7397   -0.0110 C   0  0  0  0  0  0  0  0  0  0  0  0
   -0.7838   -1.0925    0.0234 C   0  0  0  0  0  0  0  0  0  0  0  0
   -0.2600    1.6417    0.0227 C   0  0  0  0  0  0  0  0  0  0  0  0
   -1.8640   -0.1821    0.0498 C   0  0  0  0  0  0  0  0  0  0  0  0
   -1.5766    1.2018    0.0568 C   0  0  0  0  0  0  0  0  0  0  0  0
    1.6487   -1.6163   -0.0464 C   0  0  0  0  0  0  0  0  0  0  0  0
    2.2032    1.2303   -0.0460 C   0  0  0  0  0  0  0  0  0  0  0  0
   -0.9794   -2.1757    0.0196 H   0  0  0  0  0  0  0  0  0  0  0  0
   -0.0551    2.7238    0.0232 H   0  0  0  0  0  0  0  0  0  0  0  0
   -2.3939    1.9374    0.0792 H   0  0  0  0  0  0  0  0  0  0  0  0
    1.2729   -2.6683   -0.0356 H   0  0  0  0  0  0  0  0  0  0  0  0
    2.2604   -1.4682   -0.9721 H   0  0  0  0  0  0  0  0  0  0  0  0
    2.3186   -1.4696    0.8382 H   0  0  0  0  0  0  0  0  0  0  0  0
    2.7220    0.8604   -0.9664 H   0  0  0  0  0  0  0  0  0  0  0  0
    2.2426    2.3470   -0.0439 H   0  0  0  0  0  0  0  0  0  0  0  0
    2.7698    0.8552    0.8436 H   0  0  0  0  0  0  0  0  0  0  0  0
   -3.3120   -1.5664    0.3312 H   0  0  0  0  0  0  0  0  0  0  0  0
   -3.8544    0.0027    0.3559 H   0  0  0  0  0  0  0  0  0  0  0  0
  1  6  1  0  0  0  0
  1 19  1  0  0  0  0
  1 20  1  0  0  0  0
  2  3  2  0  0  0  0
  2  4  1  0  0  0  0
  2  8  1  0  0  0  0
  3  5  1  0  0  0  0
  3  9  1  0  0  0  0
  4  6  2  0  0  0  0
  4 10  1  0  0  0  0
  5  7  2  0  0  0  0
  5 11  1  0  0  0  0
  6  7  1  0  0  0  0
  7 12  1  0  0  0  0
  8 13  1  0  0  0  0
  8 14  1  0  0  0  0
  8 15  1  0  0  0  0
  9 16  1  0  0  0  0
  9 17  1  0  0  0  0
  9 18  1  0  0  0  0
M  END