
 OpenBabel06261318113D
Structure written by MMmdl.
 16 16  0  0  0  0  0  0  0  0999 V2000
   -2.8657    0.4862   -0.0229 O   0  0  0  0  0  0  0  0  0  0  0  0
    0.7791    0.4862   -0.0229 C   0  0  0  0  0  0  0  0  0  0  0  0
   -0.5448    0.9284   -0.0229 C   0  0  0  0  0  0  0  0  0  0  0  0
    1.0546   -0.8888   -0.0251 C   0  0  0  0  0  0  0  0  0  0  0  0
   -1.5835   -0.0165   -0.0234 C   0  0  0  0  0  0  0  0  0  0  0  0
    1.8927    1.4632   -0.0093 C   0  0  0  0  0  0  0  0  0  0  0  0
    0.0160   -1.8155   -0.0258 C   0  0  0  0  0  0  0  0  0  0  0  0
   -1.3117   -1.3912   -0.0248 C   0  0  0  0  0  0  0  0  0  0  0  0
   -0.7881    2.0001   -0.0229 H   0  0  0  0  0  0  0  0  0  0  0  0
    2.0990   -1.2325   -0.0270 H   0  0  0  0  0  0  0  0  0  0  0  0
    1.5451    2.4786   -0.3208 H   0  0  0  0  0  0  0  0  0  0  0  0
    2.3194    1.5391    1.0228 H   0  0  0  0  0  0  0  0  0  0  0  0
    2.7090    1.1400   -0.7017 H   0  0  0  0  0  0  0  0  0  0  0  0
    0.2414   -2.8925   -0.0276 H   0  0  0  0  0  0  0  0  0  0  0  0
   -2.1325   -2.1210   -0.0258 H   0  0  0  0  0  0  0  0  0  0  0  0
   -3.4783   -0.2632   -0.0249 H   0  0  0  0  0  0  0  0  0  0  0  0
  1  5  1  0  0  0  0
  1 16  1  0  0  0  0
  2  3  2  0  0  0  0
  2  4  1  0  0  0  0
  2  6  1  0  0  0  0
  3  5  1  0  0  0  0
  3  9  1  0  0  0  0
  4  7  2  0  0  0  0
  4 10  1  0  0  0  0
  5  8  2  0  0  0  0
  6 11  1  0  0  0  0
  6 12  1  0  0  0  0
  6 13  1  0  0  0  0
  7  8  1  0  0  0  0
  7 14  1  0  0  0  0
  8 15  1  0  0  0  0
M  END