
 OpenBabel06261318113D
Structure written by MMmdl.
 14 14  0  0  0  0  0  0  0  0999 V2000
   -3.5685   -0.0354    0.0000 Cl  0  0  0  0  0  0  0  0  0  0  0  0
    2.3374   -0.0354    0.0000 N   0  0  0  0  0  0  0  0  0  0  0  0
    0.9424    0.0335    0.0000 C   0  0  0  0  0  0  0  0  0  0  0  0
    0.2177    0.0279    1.2159 C   0  0  0  0  0  0  0  0  0  0  0  0
    0.2177    0.0281   -1.2158 C   0  0  0  0  0  0  0  0  0  0  0  0
   -1.1709    0.0028    1.2112 C   0  0  0  0  0  0  0  0  0  0  0  0
   -1.1709    0.0030   -1.2112 C   0  0  0  0  0  0  0  0  0  0  0  0
   -1.8677   -0.0088    0.0000 C   0  0  0  0  0  0  0  0  0  0  0  0
    0.7517    0.0335    2.1779 H   0  0  0  0  0  0  0  0  0  0  0  0
    0.7517    0.0338   -2.1779 H   0  0  0  0  0  0  0  0  0  0  0  0
   -1.7192   -0.0066    2.1661 H   0  0  0  0  0  0  0  0  0  0  0  0
   -1.7192   -0.0062   -2.1660 H   0  0  0  0  0  0  0  0  0  0  0  0
    2.7701    0.2954    0.8330 H   0  0  0  0  0  0  0  0  0  0  0  0
    2.7701    0.2955   -0.8329 H   0  0  0  0  0  0  0  0  0  0  0  0
  1  8  1  0  0  0  0
  2  3  1  0  0  0  0
  2 13  1  0  0  0  0
  2 14  1  0  0  0  0
  3  4  2  0  0  0  0
  3  5  1  0  0  0  0
  4  6  1  0  0  0  0
  4  9  1  0  0  0  0
  5  7  2  0  0  0  0
  5 10  1  0  0  0  0
  6  8  2  0  0  0  0
  6 11  1  0  0  0  0
  7  8  1  0  0  0  0
  7 12  1  0  0  0  0
M  END