
 OpenBabel06261318113D
Structure written by MMmdl.
 17 17  0  0  0  0  0  0  0  0999 V2000
   -2.9976   -0.0028    0.0001 N   0  0  0  0  0  0  0  0  0  0  0  0
    1.2276   -0.0028    0.0001 C   0  0  0  0  0  0  0  0  0  0  0  0
   -1.5986    0.0585    0.0001 C   0  0  0  0  0  0  0  0  0  0  0  0
    0.5151    0.0138    1.2038 C   0  0  0  0  0  0  0  0  0  0  0  0
    0.5152    0.0168   -1.2036 C   0  0  0  0  0  0  0  0  0  0  0  0
   -0.8733    0.0478    1.2143 C   0  0  0  0  0  0  0  0  0  0  0  0
   -0.8733    0.0507   -1.2140 C   0  0  0  0  0  0  0  0  0  0  0  0
    2.7067   -0.0537    0.0001 C   0  0  0  0  0  0  0  0  0  0  0  0
    1.0624    0.0015    2.1590 H   0  0  0  0  0  0  0  0  0  0  0  0
    1.0624    0.0069   -2.1588 H   0  0  0  0  0  0  0  0  0  0  0  0
   -1.4068    0.0568    2.1763 H   0  0  0  0  0  0  0  0  0  0  0  0
   -1.4067    0.0621   -2.1760 H   0  0  0  0  0  0  0  0  0  0  0  0
    3.1249    0.4504   -0.9058 H   0  0  0  0  0  0  0  0  0  0  0  0
    3.1248    0.4476    0.9075 H   0  0  0  0  0  0  0  0  0  0  0  0
    3.0536   -1.1181   -0.0015 H   0  0  0  0  0  0  0  0  0  0  0  0
   -3.4200    0.3505   -0.8299 H   0  0  0  0  0  0  0  0  0  0  0  0
   -3.4199    0.3486    0.8310 H   0  0  0  0  0  0  0  0  0  0  0  0
  1  3  1  0  0  0  0
  1 16  1  0  0  0  0
  1 17  1  0  0  0  0
  2  4  2  0  0  0  0
  2  5  1  0  0  0  0
  2  8  1  0  0  0  0
  3  6  2  0  0  0  0
  3  7  1  0  0  0  0
  4  6  1  0  0  0  0
  4  9  1  0  0  0  0
  5  7  2  0  0  0  0
  5 10  1  0  0  0  0
  6 11  1  0  0  0  0
  7 12  1  0  0  0  0
  8 13  1  0  0  0  0
  8 14  1  0  0  0  0
  8 15  1  0  0  0  0
M  END