
 OpenBabel06261318113D
Structure written by MMmdl.
 24 25  0  0  0  0  0  0  0  0999 V2000
   -2.1167   -1.3982    0.0000 O   0  0  0  0  0  0  0  0  0  0  0  0
    0.2538   -1.3982    0.0000 C   0  0  0  0  0  0  0  0  0  0  0  0
   -1.1023    0.7444    0.0000 C   0  0  0  0  0  0  0  0  0  0  0  0
   -1.0698   -0.7355    0.0001 C   0  0  0  0  0  0  0  0  0  0  0  0
    1.3536   -0.8306    0.6541 C   0  0  0  0  0  0  0  0  0  0  0  0
   -2.1642    1.4003    0.6377 C   0  0  0  0  0  0  0  0  0  0  0  0
    0.3929   -2.6373   -0.6401 C   0  0  0  0  0  0  0  0  0  0  0  0
   -0.1172    1.4954   -0.6518 C   0  0  0  0  0  0  0  0  0  0  0  0
    2.5807   -1.4917    0.6593 C   0  0  0  0  0  0  0  0  0  0  0  0
   -2.2269    2.7925    0.6386 C   0  0  0  0  0  0  0  0  0  0  0  0
    1.6244   -3.2896   -0.6412 C   0  0  0  0  0  0  0  0  0  0  0  0
   -0.1897    2.8874   -0.6572 C   0  0  0  0  0  0  0  0  0  0  0  0
    2.7186   -2.7180    0.0084 C   0  0  0  0  0  0  0  0  0  0  0  0
   -1.2406    3.5368   -0.0088 C   0  0  0  0  0  0  0  0  0  0  0  0
    1.2453    0.1362    1.1703 H   0  0  0  0  0  0  0  0  0  0  0  0
   -2.9487    0.8029    1.1293 H   0  0  0  0  0  0  0  0  0  0  0  0
   -0.4823   -3.0898   -1.1334 H   0  0  0  0  0  0  0  0  0  0  0  0
    0.7114    0.9839   -1.1661 H   0  0  0  0  0  0  0  0  0  0  0  0
    3.4406   -1.0447    1.1793 H   0  0  0  0  0  0  0  0  0  0  0  0
   -3.0589    3.3029    1.1457 H   0  0  0  0  0  0  0  0  0  0  0  0
    1.7302   -4.2590   -1.1503 H   0  0  0  0  0  0  0  0  0  0  0  0
    0.5835    3.4734   -1.1755 H   0  0  0  0  0  0  0  0  0  0  0  0
    3.6893   -3.2357    0.0108 H   0  0  0  0  0  0  0  0  0  0  0  0
   -1.2931    4.6357   -0.0114 H   0  0  0  0  0  0  0  0  0  0  0  0
  1  4  2  0  0  0  0
  2  4  1  0  0  0  0
  2  5  2  0  0  0  0
  2  7  1  0  0  0  0
  3  4  1  0  0  0  0
  3  6  2  0  0  0  0
  3  8  1  0  0  0  0
  5  9  1  0  0  0  0
  5 15  1  0  0  0  0
  6 10  1  0  0  0  0
  6 16  1  0  0  0  0
  7 11  2  0  0  0  0
  7 17  1  0  0  0  0
  8 12  2  0  0  0  0
  8 18  1  0  0  0  0
  9 13  2  0  0  0  0
  9 19  1  0  0  0  0
 10 14  2  0  0  0  0
 10 20  1  0  0  0  0
 11 13  1  0  0  0  0
 11 21  1  0  0  0  0
 12 14  1  0  0  0  0
 12 22  1  0  0  0  0
 13 23  1  0  0  0  0
 14 24  1  0  0  0  0
M  END