
 OpenBabel06261318113D
Structure written by MMmdl.
 17 17  0  0  0  0  0  0  0  0999 V2000
   -2.7275    0.0178   -0.0707 O   0  0  0  0  0  0  0  0  0  0  0  0
    1.3679    0.0178   -0.0707 C   0  0  0  0  0  0  0  0  0  0  0  0
    0.5695    1.3046   -0.0707 C   0  0  0  0  0  0  0  0  0  0  0  0
    0.5695   -1.1185   -0.6745 C   0  0  0  0  0  0  0  0  0  0  0  0
   -0.7431    1.1467    0.6671 C   0  0  0  0  0  0  0  0  0  0  0  0
   -0.7431   -1.3252    0.0511 C   0  0  0  0  0  0  0  0  0  0  0  0
   -1.5199   -0.0443    0.1787 C   0  0  0  0  0  0  0  0  0  0  0  0
    2.3129    0.1637   -0.6559 H   0  0  0  0  0  0  0  0  0  0  0  0
    1.6593   -0.2441    0.9803 H   0  0  0  0  0  0  0  0  0  0  0  0
    0.3679    1.6198   -1.1284 H   0  0  0  0  0  0  0  0  0  0  0  0
    1.1676    2.1201    0.4136 H   0  0  0  0  0  0  0  0  0  0  0  0
    1.1676   -2.0659   -0.6296 H   0  0  0  0  0  0  0  0  0  0  0  0
    0.3679   -0.9005   -1.7565 H   0  0  0  0  0  0  0  0  0  0  0  0
   -1.3608    2.0760    0.5518 H   0  0  0  0  0  0  0  0  0  0  0  0
   -0.5497    1.0001    1.7637 H   0  0  0  0  0  0  0  0  0  0  0  0
   -0.5498   -1.7104    1.0882 H   0  0  0  0  0  0  0  0  0  0  0  0
   -1.3609   -2.0918   -0.4868 H   0  0  0  0  0  0  0  0  0  0  0  0
  1  7  2  0  0  0  0
  2  3  1  0  0  0  0
  2  4  1  0  0  0  0
  2  8  1  0  0  0  0
  2  9  1  0  0  0  0
  3  5  1  0  0  0  0
  3 10  1  0  0  0  0
  3 11  1  0  0  0  0
  4  6  1  0  0  0  0
  4 12  1  0  0  0  0
  4 13  1  0  0  0  0
  5  7  1  0  0  0  0
  5 14  1  0  0  0  0
  5 15  1  0  0  0  0
  6  7  1  0  0  0  0
  6 16  1  0  0  0  0
  6 17  1  0  0  0  0
M  END