
 OpenBabel06261318113D
Structure written by MMmdl.
 10  9  0  0  0  0  0  0  0  0999 V2000
   -1.3750   -0.8693   -0.1540 O   0  0  0  0  0  0  0  0  0  0  0  0
    2.2403   -0.8693   -0.1540 O   0  0  0  0  0  0  0  0  0  0  0  0
   -0.0988   -0.2544   -0.1540 C   0  0  0  0  0  0  0  0  0  0  0  0
    0.9294   -1.3753   -0.2957 C   0  0  0  0  0  0  0  0  0  0  0  0
   -0.0074    0.4693   -1.0062 H   0  0  0  0  0  0  0  0  0  0  0  0
    0.0592    0.3011    0.8098 H   0  0  0  0  0  0  0  0  0  0  0  0
    0.8969   -1.8128   -1.3285 H   0  0  0  0  0  0  0  0  0  0  0  0
    0.7257   -2.1814    0.4571 H   0  0  0  0  0  0  0  0  0  0  0  0
   -2.0239   -0.1565   -0.1618 H   0  0  0  0  0  0  0  0  0  0  0  0
    2.3285   -0.5485    0.7515 H   0  0  0  0  0  0  0  0  0  0  0  0
  1  3  1  0  0  0  0
  1  9  1  0  0  0  0
  2  4  1  0  0  0  0
  2 10  1  0  0  0  0
  3  4  1  0  0  0  0
  3  5  1  0  0  0  0
  3  6  1  0  0  0  0
  4  7  1  0  0  0  0
  4  8  1  0  0  0  0
M  END