
 OpenBabel06261318113D
Structure written by MMmdl.
 15 14  0  0  0  0  0  0  0  0999 V2000
   -2.2150   -0.2634   -0.2967 O   0  0  0  0  0  0  0  0  0  0  0  0
    0.1617   -0.2634   -0.2967 C   0  0  0  0  0  0  0  0  0  0  0  0
   -1.0934    0.6066   -0.2967 C   0  0  0  0  0  0  0  0  0  0  0  0
    1.3675    0.5811   -0.6450 C   0  0  0  0  0  0  0  0  0  0  0  0
    0.3412   -0.9394    1.0449 C   0  0  0  0  0  0  0  0  0  0  0  0
    0.0287   -1.0593   -1.0831 H   0  0  0  0  0  0  0  0  0  0  0  0
   -1.1162    1.2643    0.6130 H   0  0  0  0  0  0  0  0  0  0  0  0
   -1.1182    1.2534   -1.2151 H   0  0  0  0  0  0  0  0  0  0  0  0
    2.2909   -0.0466   -0.6315 H   0  0  0  0  0  0  0  0  0  0  0  0
    1.4939    1.4103    0.0923 H   0  0  0  0  0  0  0  0  0  0  0  0
    1.2554    1.0259   -1.6629 H   0  0  0  0  0  0  0  0  0  0  0  0
    1.2074   -1.6427    1.0114 H   0  0  0  0  0  0  0  0  0  0  0  0
   -0.5811   -1.5133    1.3053 H   0  0  0  0  0  0  0  0  0  0  0  0
    0.5292   -0.1842    1.8456 H   0  0  0  0  0  0  0  0  0  0  0  0
   -2.9973    0.2985   -0.2635 H   0  0  0  0  0  0  0  0  0  0  0  0
  1  3  1  0  0  0  0
  1 15  1  0  0  0  0
  2  3  1  0  0  0  0
  2  4  1  0  0  0  0
  2  5  1  0  0  0  0
  2  6  1  0  0  0  0
  3  7  1  0  0  0  0
  3  8  1  0  0  0  0
  4  9  1  0  0  0  0
  4 10  1  0  0  0  0
  4 11  1  0  0  0  0
  5 12  1  0  0  0  0
  5 13  1  0  0  0  0
  5 14  1  0  0  0  0
M  END