
 OpenBabel06261318113D
Structure written by MMmdl.
 18 18  0  0  0  0  0  0  0  0999 V2000
   -0.7052   -0.2399    0.0000 C   0  0  0  0  0  0  0  0  0  0  0  0
    0.7015   -0.2399    0.0000 C   0  0  0  0  0  0  0  0  0  0  0  0
   -1.3937    0.9779    0.0000 C   0  0  0  0  0  0  0  0  0  0  0  0
    1.3901    0.9779    0.0002 C   0  0  0  0  0  0  0  0  0  0  0  0
   -1.4522   -1.5188   -0.0002 C   0  0  0  0  0  0  0  0  0  0  0  0
    1.4486   -1.5188   -0.0002 C   0  0  0  0  0  0  0  0  0  0  0  0
   -0.6989    2.1856    0.0003 C   0  0  0  0  0  0  0  0  0  0  0  0
    0.6953    2.1856    0.0003 C   0  0  0  0  0  0  0  0  0  0  0  0
   -2.4940    0.9806   -0.0001 H   0  0  0  0  0  0  0  0  0  0  0  0
    2.4904    0.9805    0.0001 H   0  0  0  0  0  0  0  0  0  0  0  0
   -1.1890   -2.1207   -0.9066 H   0  0  0  0  0  0  0  0  0  0  0  0
   -1.1865   -2.1225    0.9042 H   0  0  0  0  0  0  0  0  0  0  0  0
   -2.5561   -1.3467    0.0015 H   0  0  0  0  0  0  0  0  0  0  0  0
    1.1835   -2.1219   -0.9052 H   0  0  0  0  0  0  0  0  0  0  0  0
    2.5526   -1.3466   -0.0011 H   0  0  0  0  0  0  0  0  0  0  0  0
    1.1850   -2.1213    0.9057 H   0  0  0  0  0  0  0  0  0  0  0  0
   -1.2505    3.1368    0.0004 H   0  0  0  0  0  0  0  0  0  0  0  0
    1.2469    3.1367    0.0005 H   0  0  0  0  0  0  0  0  0  0  0  0
  1  2  2  0  0  0  0
  1  3  1  0  0  0  0
  1  5  1  0  0  0  0
  2  4  1  0  0  0  0
  2  6  1  0  0  0  0
  3  7  2  0  0  0  0
  3  9  1  0  0  0  0
  4  8  2  0  0  0  0
  4 10  1  0  0  0  0
  5 11  1  0  0  0  0
  5 12  1  0  0  0  0
  5 13  1  0  0  0  0
  6 14  1  0  0  0  0
  6 15  1  0  0  0  0
  6 16  1  0  0  0  0
  7  8  1  0  0  0  0
  7 17  1  0  0  0  0
  8 18  1  0  0  0  0
M  END