
 OpenBabel06261318113D
Structure written by MMmdl.
 18 18  0  0  0  0  0  0  0  0999 V2000
   -1.4082    0.0000    0.0000 C   0  0  0  0  0  0  0  0  0  0  0  0
    1.4039    0.0000    0.0000 C   0  0  0  0  0  0  0  0  0  0  0  0
   -0.6983    1.2064    0.0000 C   0  0  0  0  0  0  0  0  0  0  0  0
    0.6940    1.2064   -0.0007 C   0  0  0  0  0  0  0  0  0  0  0  0
   -0.6983   -1.2064    0.0007 C   0  0  0  0  0  0  0  0  0  0  0  0
    0.6940   -1.2064    0.0000 C   0  0  0  0  0  0  0  0  0  0  0  0
   -2.8887    0.0002   -0.0156 C   0  0  0  0  0  0  0  0  0  0  0  0
    2.8844    0.0000    0.0157 C   0  0  0  0  0  0  0  0  0  0  0  0
   -1.2457    2.1607    0.0008 H   0  0  0  0  0  0  0  0  0  0  0  0
    1.2414    2.1607   -0.0020 H   0  0  0  0  0  0  0  0  0  0  0  0
   -1.2457   -2.1607    0.0020 H   0  0  0  0  0  0  0  0  0  0  0  0
    1.2414   -2.1607   -0.0008 H   0  0  0  0  0  0  0  0  0  0  0  0
   -3.2949   -0.9089    0.4924 H   0  0  0  0  0  0  0  0  0  0  0  0
   -3.2946    0.9048    0.5006 H   0  0  0  0  0  0  0  0  0  0  0  0
   -3.2591    0.0050   -1.0720 H   0  0  0  0  0  0  0  0  0  0  0  0
    3.2905   -0.9067   -0.4967 H   0  0  0  0  0  0  0  0  0  0  0  0
    3.2905    0.9069   -0.4961 H   0  0  0  0  0  0  0  0  0  0  0  0
    3.2547   -0.0004    1.0721 H   0  0  0  0  0  0  0  0  0  0  0  0
  1  3  2  0  0  0  0
  1  5  1  0  0  0  0
  1  7  1  0  0  0  0
  2  4  2  0  0  0  0
  2  6  1  0  0  0  0
  2  8  1  0  0  0  0
  3  4  1  0  0  0  0
  3  9  1  0  0  0  0
  4 10  1  0  0  0  0
  5  6  2  0  0  0  0
  5 11  1  0  0  0  0
  6 12  1  0  0  0  0
  7 13  1  0  0  0  0
  7 14  1  0  0  0  0
  7 15  1  0  0  0  0
  8 16  1  0  0  0  0
  8 17  1  0  0  0  0
  8 18  1  0  0  0  0
M  END