
 OpenBabel06261318113D
Structure written by MMmdl.
  6  5  0  0  0  0  0  0  0  0999 V2000
   -1.4651   -1.6073   -0.0005 Cl  0  0  0  0  0  0  0  0  0  0  0  0
    1.3989   -1.6073   -0.0005 Cl  0  0  0  0  0  0  0  0  0  0  0  0
    1.3990    1.5412   -0.0005 Cl  0  0  0  0  0  0  0  0  0  0  0  0
   -1.4651    1.5413    0.0000 Cl  0  0  0  0  0  0  0  0  0  0  0  0
   -0.0331   -0.7087   -0.0005 C   0  0  0  0  0  0  0  0  0  0  0  0
   -0.0331    0.6426   -0.0004 C   0  0  0  0  0  0  0  0  0  0  0  0
  1  5  1  0  0  0  0
  2  5  1  0  0  0  0
  3  6  1  0  0  0  0
  4  6  1  0  0  0  0
  5  6  2  0  0  0  0
M  END