
 OpenBabel06261318113D
Structure written by MMmdl.
  8  7  0  0  0  0  0  0  0  0999 V2000
   -1.4083   -1.1923   -1.0759 Cl  0  0  0  0  0  0  0  0  0  0  0  0
    1.4817   -1.1923   -1.0759 Cl  0  0  0  0  0  0  0  0  0  0  0  0
   -0.0474    1.7625   -1.0759 Cl  0  0  0  0  0  0  0  0  0  0  0  0
   -1.1889    0.9572    1.4541 Cl  0  0  0  0  0  0  0  0  0  0  0  0
    0.0319   -0.8040   -0.1677 C   0  0  0  0  0  0  0  0  0  0  0  0
    0.0706    0.6566    0.2704 C   0  0  0  0  0  0  0  0  0  0  0  0
    0.0344   -1.4745    0.7305 H   0  0  0  0  0  0  0  0  0  0  0  0
    1.0428    0.8782    0.7824 H   0  0  0  0  0  0  0  0  0  0  0  0
  1  5  1  0  0  0  0
  2  5  1  0  0  0  0
  3  6  1  0  0  0  0
  4  6  1  0  0  0  0
  5  6  1  0  0  0  0
  5  7  1  0  0  0  0
  6  8  1  0  0  0  0
M  END