
 OpenBabel06261318113D
Structure written by MMmdl.
 12 12  0  0  0  0  0  0  0  0999 V2000
   -1.5942   -2.6364    0.0011 Cl  0  0  0  0  0  0  0  0  0  0  0  0
    1.5620   -2.6364    0.0011 Cl  0  0  0  0  0  0  0  0  0  0  0  0
   -1.5609    2.6994    0.0011 Cl  0  0  0  0  0  0  0  0  0  0  0  0
   -0.7176   -1.1856    0.0009 C   0  0  0  0  0  0  0  0  0  0  0  0
    0.6859   -1.1857    0.0007 C   0  0  0  0  0  0  0  0  0  0  0  0
   -1.4183    0.0254    0.0010 C   0  0  0  0  0  0  0  0  0  0  0  0
   -0.7111    1.2297    0.0007 C   0  0  0  0  0  0  0  0  0  0  0  0
    1.3811    0.0294    0.0002 C   0  0  0  0  0  0  0  0  0  0  0  0
    0.6880    1.2359    0.0001 C   0  0  0  0  0  0  0  0  0  0  0  0
   -2.5202    0.0248    0.0014 H   0  0  0  0  0  0  0  0  0  0  0  0
    2.4827    0.0309   -0.0001 H   0  0  0  0  0  0  0  0  0  0  0  0
    1.2411    2.1879   -0.0003 H   0  0  0  0  0  0  0  0  0  0  0  0
  1  4  1  0  0  0  0
  2  5  1  0  0  0  0
  3  7  1  0  0  0  0
  4  5  2  0  0  0  0
  4  6  1  0  0  0  0
  5  8  1  0  0  0  0
  6  7  2  0  0  0  0
  6 10  1  0  0  0  0
  7  9  1  0  0  0  0
  8  9  2  0  0  0  0
  8 11  1  0  0  0  0
  9 12  1  0  0  0  0
M  END