
 OpenBabel06261318113D
Structure written by MMmdl.
 13 13  0  0  0  0  0  0  0  0999 V2000
   -1.3664   -2.6832    0.0010 Cl  0  0  0  0  0  0  0  0  0  0  0  0
    1.7601   -2.6832    0.0010 Cl  0  0  0  0  0  0  0  0  0  0  0  0
   -2.5542    0.0003    0.0010 O   0  0  0  0  0  0  0  0  0  0  0  0
   -1.1793    0.0172    0.0005 C   0  0  0  0  0  0  0  0  0  0  0  0
   -0.5078   -1.2238    0.0007 C   0  0  0  0  0  0  0  0  0  0  0  0
   -0.4591    1.2212   -0.0001 C   0  0  0  0  0  0  0  0  0  0  0  0
    0.8960   -1.2224    0.0006 C   0  0  0  0  0  0  0  0  0  0  0  0
    1.6124   -0.0209    0.0001 C   0  0  0  0  0  0  0  0  0  0  0  0
    0.9316    1.1938   -0.0003 C   0  0  0  0  0  0  0  0  0  0  0  0
   -0.9972    2.1800   -0.0002 H   0  0  0  0  0  0  0  0  0  0  0  0
    2.7128   -0.0377   -0.0001 H   0  0  0  0  0  0  0  0  0  0  0  0
    1.4975    2.1378   -0.0008 H   0  0  0  0  0  0  0  0  0  0  0  0
   -2.8623    0.9192    0.0006 H   0  0  0  0  0  0  0  0  0  0  0  0
  1  5  1  0  0  0  0
  2  7  1  0  0  0  0
  3  4  1  0  0  0  0
  3 13  1  0  0  0  0
  4  5  2  0  0  0  0
  4  6  1  0  0  0  0
  5  7  1  0  0  0  0
  6  9  2  0  0  0  0
  6 10  1  0  0  0  0
  7  8  2  0  0  0  0
  8  9  1  0  0  0  0
  8 11  1  0  0  0  0
  9 12  1  0  0  0  0
M  END