
 OpenBabel06261318113D
Structure written by MMmdl.
 19 19  0  0  0  0  0  0  0  0999 V2000
   -2.6845   -0.5774   -0.0053 O   0  0  0  0  0  0  0  0  0  0  0  0
   -0.3073   -0.5774   -0.0053 C   0  0  0  0  0  0  0  0  0  0  0  0
    0.9021    0.1367   -0.0053 C   0  0  0  0  0  0  0  0  0  0  0  0
   -1.5137    0.1512   -0.0035 C   0  0  0  0  0  0  0  0  0  0  0  0
    0.8941    1.5366   -0.0029 C   0  0  0  0  0  0  0  0  0  0  0  0
   -0.3110   -2.0574   -0.0118 C   0  0  0  0  0  0  0  0  0  0  0  0
    2.1903   -0.5961   -0.0045 C   0  0  0  0  0  0  0  0  0  0  0  0
   -1.5200    1.5528   -0.0005 C   0  0  0  0  0  0  0  0  0  0  0  0
   -0.3083    2.2381   -0.0003 C   0  0  0  0  0  0  0  0  0  0  0  0
    1.8472    2.0856   -0.0033 H   0  0  0  0  0  0  0  0  0  0  0  0
    0.3189   -2.4501    0.8258 H   0  0  0  0  0  0  0  0  0  0  0  0
   -1.3467   -2.4621    0.1017 H   0  0  0  0  0  0  0  0  0  0  0  0
    0.1147   -2.4378   -0.9748 H   0  0  0  0  0  0  0  0  0  0  0  0
    2.3029   -1.1749    0.9472 H   0  0  0  0  0  0  0  0  0  0  0  0
    2.2250   -1.3211   -0.8565 H   0  0  0  0  0  0  0  0  0  0  0  0
    3.0566    0.1032   -0.0977 H   0  0  0  0  0  0  0  0  0  0  0  0
   -2.4719    2.1013    0.0013 H   0  0  0  0  0  0  0  0  0  0  0  0
   -0.3039    3.3382    0.0016 H   0  0  0  0  0  0  0  0  0  0  0  0
   -3.4223    0.0493    0.0061 H   0  0  0  0  0  0  0  0  0  0  0  0
  1  4  1  0  0  0  0
  1 19  1  0  0  0  0
  2  3  2  0  0  0  0
  2  4  1  0  0  0  0
  2  6  1  0  0  0  0
  3  5  1  0  0  0  0
  3  7  1  0  0  0  0
  4  8  2  0  0  0  0
  5  9  2  0  0  0  0
  5 10  1  0  0  0  0
  6 11  1  0  0  0  0
  6 12  1  0  0  0  0
  6 13  1  0  0  0  0
  7 14  1  0  0  0  0
  7 15  1  0  0  0  0
  7 16  1  0  0  0  0
  8  9  1  0  0  0  0
  8 17  1  0  0  0  0
  9 18  1  0  0  0  0
M  END