
 OpenBabel06261318113D
Structure written by MMmdl.
 20 20  0  0  0  0  0  0  0  0999 V2000
   -1.9696   -0.0015    0.0388 N   0  0  0  0  0  0  0  0  0  0  0  0
   -0.5688   -0.0015    0.0388 C   0  0  0  0  0  0  0  0  0  0  0  0
    0.1520    1.2231    0.0388 C   0  0  0  0  0  0  0  0  0  0  0  0
    0.1521   -1.2234   -0.0433 C   0  0  0  0  0  0  0  0  0  0  0  0
    1.5443    1.2052   -0.0522 C   0  0  0  0  0  0  0  0  0  0  0  0
    1.5443   -1.1994   -0.1329 C   0  0  0  0  0  0  0  0  0  0  0  0
    2.2424    0.0044   -0.1377 C   0  0  0  0  0  0  0  0  0  0  0  0
   -0.5567    2.5220    0.1253 C   0  0  0  0  0  0  0  0  0  0  0  0
   -0.5566   -2.5252   -0.0442 C   0  0  0  0  0  0  0  0  0  0  0  0
    2.0964    2.1578   -0.0561 H   0  0  0  0  0  0  0  0  0  0  0  0
    2.0964   -2.1496   -0.2006 H   0  0  0  0  0  0  0  0  0  0  0  0
    3.3390    0.0068   -0.2090 H   0  0  0  0  0  0  0  0  0  0  0  0
   -1.2621    2.6451   -0.7349 H   0  0  0  0  0  0  0  0  0  0  0  0
   -1.1437    2.5915    1.0760 H   0  0  0  0  0  0  0  0  0  0  0  0
    0.1654    3.3753    0.1051 H   0  0  0  0  0  0  0  0  0  0  0  0
   -1.1436   -2.6583    0.8998 H   0  0  0  0  0  0  0  0  0  0  0  0
   -1.2621   -2.5904   -0.9106 H   0  0  0  0  0  0  0  0  0  0  0  0
    0.1655   -3.3751   -0.1217 H   0  0  0  0  0  0  0  0  0  0  0  0
   -2.3776   -0.8434    0.3830 H   0  0  0  0  0  0  0  0  0  0  0  0
   -2.3776    0.8152    0.4388 H   0  0  0  0  0  0  0  0  0  0  0  0
  1  2  1  0  0  0  0
  1 19  1  0  0  0  0
  1 20  1  0  0  0  0
  2  3  2  0  0  0  0
  2  4  1  0  0  0  0
  3  5  1  0  0  0  0
  3  8  1  0  0  0  0
  4  6  2  0  0  0  0
  4  9  1  0  0  0  0
  5  7  2  0  0  0  0
  5 10  1  0  0  0  0
  6  7  1  0  0  0  0
  6 11  1  0  0  0  0
  7 12  1  0  0  0  0
  8 13  1  0  0  0  0
  8 14  1  0  0  0  0
  8 15  1  0  0  0  0
  9 16  1  0  0  0  0
  9 17  1  0  0  0  0
  9 18  1  0  0  0  0
M  END