
 OpenBabel06261318113D
Structure written by MMmdl.
 18 17  0  0  0  0  0  0  0  0999 V2000
   -1.5335   -0.1331    0.2419 O   0  0  0  0  0  0  0  0  0  0  0  0
   -0.1138   -0.1331    0.2419 C   0  0  0  0  0  0  0  0  0  0  0  0
    0.4388    1.2900    0.2419 C   0  0  0  0  0  0  0  0  0  0  0  0
    0.4387   -0.9182   -0.9452 C   0  0  0  0  0  0  0  0  0  0  0  0
    0.0145    2.0483    1.4718 C   0  0  0  0  0  0  0  0  0  0  0  0
    0.0131   -2.3620   -0.8999 C   0  0  0  0  0  0  0  0  0  0  0  0
    0.1504   -0.6521    1.2072 H   0  0  0  0  0  0  0  0  0  0  0  0
    0.0781    1.8239   -0.6763 H   0  0  0  0  0  0  0  0  0  0  0  0
    1.5574    1.2440    0.1872 H   0  0  0  0  0  0  0  0  0  0  0  0
    0.0787   -0.4462   -1.8970 H   0  0  0  0  0  0  0  0  0  0  0  0
    1.5573   -0.8481   -0.9365 H   0  0  0  0  0  0  0  0  0  0  0  0
    0.3457    3.1124    1.4076 H   0  0  0  0  0  0  0  0  0  0  0  0
   -1.0981    2.0223    1.5754 H   0  0  0  0  0  0  0  0  0  0  0  0
    0.4607    1.5928    2.3887 H   0  0  0  0  0  0  0  0  0  0  0  0
    0.3437   -2.8952   -1.8232 H   0  0  0  0  0  0  0  0  0  0  0  0
    0.4591   -2.8763   -0.0145 H   0  0  0  0  0  0  0  0  0  0  0  0
   -1.0995   -2.4332   -0.8209 H   0  0  0  0  0  0  0  0  0  0  0  0
   -1.8199    0.3029   -0.5692 H   0  0  0  0  0  0  0  0  0  0  0  0
  1  2  1  0  0  0  0
  1 18  1  0  0  0  0
  2  3  1  0  0  0  0
  2  4  1  0  0  0  0
  2  7  1  0  0  0  0
  3  5  1  0  0  0  0
  3  8  1  0  0  0  0
  3  9  1  0  0  0  0
  4  6  1  0  0  0  0
  4 10  1  0  0  0  0
  4 11  1  0  0  0  0
  5 12  1  0  0  0  0
  5 13  1  0  0  0  0
  5 14  1  0  0  0  0
  6 15  1  0  0  0  0
  6 16  1  0  0  0  0
  6 17  1  0  0  0  0
M  END