1,2-Dichloroethane
  SciTegic12150910513D

  4  3  0  0  0  0            999 V2000
   -0.4839   -0.2020   -0.6234 Cl  0  0  0  0  0  0  0  0  0  1  0  0
    1.1689    0.3146   -0.2732 C   0  0  0  0  0  0  0  0  0  2  0  0
    1.6328   -0.3153    1.0529 C   0  0  0  0  0  0  0  0  0  3  0  0
    0.5604    0.2039    2.3575 Cl  0  0  0  0  0  0  0  0  0  4  0  0
  3  4  1  0
  2  3  1  0
  1  2  1  0
M  END