Trichloroethylene
  SciTegic12150910513D

  5  4  0  0  0  0            999 V2000
   -0.0843    0.1988   -0.0053 C   0  0  0  0  0  0  0  0  0  1  0  0
    1.1780    0.4996    0.2916 C   0  0  0  0  0  0  0  0  0  2  0  0
    2.2129   -0.7029    0.9768 Cl  0  0  0  0  0  0  0  0  0  3  0  0
   -1.1212    1.3999   -0.6907 Cl  0  0  0  0  0  0  0  0  0  4  0  0
   -0.6857   -1.3934    0.2948 Cl  0  0  0  0  0  0  0  0  0  5  0  0
  1  5  1  0
  1  4  1  0
  2  3  1  0
  1  2  2  0
M  END