Tetrachloroethylene
  SciTegic12150910513D

  6  5  0  0  0  0            999 V2000
   -0.1650   -0.0224    0.0223 C   0  0  0  0  0  0  0  0  0  1  0  0
    1.1645    0.0230   -0.0207 C   0  0  0  0  0  0  0  0  0  2  0  0
    2.0254    1.1067    1.0143 Cl  0  0  0  0  0  0  0  0  0  3  0  0
    2.0288   -1.0017   -1.1114 Cl  0  0  0  0  0  0  0  0  0  4  0  0
   -1.0292    1.0023    1.1130 Cl  0  0  0  0  0  0  0  0  0  5  0  0
   -1.0259   -1.1061   -1.0127 Cl  0  0  0  0  0  0  0  0  0  6  0  0
  1  6  1  0
  1  5  1  0
  2  4  1  0
  2  3  1  0
  1  2  2  0
M  END