Styrene
  SciTegic12150910513D

  8  8  0  0  0  0            999 V2000
    1.4573    0.0055    0.3709 C   0  0  0  0  0  0  0  0  0  1  0  0
    2.4899   -0.8541    0.7282 C   0  0  0  0  0  0  0  0  0  2  0  0
    3.8124   -0.4659    0.5452 C   0  0  0  0  0  0  0  0  0  3  0  0
    4.1023    0.7820    0.0049 C   0  0  0  0  0  0  0  0  0  4  0  0
    3.0697    1.6419   -0.3524 C   0  0  0  0  0  0  0  0  0  5  0  0
    1.7473    1.2536   -0.1695 C   0  0  0  0  0  0  0  0  0  6  0  0
    0.0662   -0.4051    0.5644 C   0  0  0  0  0  0  0  0  0  7  0  0
   -0.9263    0.4145    0.2238 C   0  0  0  0  0  0  0  0  0  8  0  0
  7  8  2  0
  1  7  1  0
  6  5  4  0
  1  6  4  0
  4  5  4  0
  3  4  4  0
  2  3  4  0
  1  2  4  0
M  END