o-Xylene
  SciTegic12150910513D

  8  8  0  0  0  0            999 V2000
    0.4127    0.6409    0.6834 C   0  0  0  0  0  0  0  0  0  1  0  0
    0.1067    1.9745    0.9382 C   0  0  0  0  0  0  0  0  0  2  0  0
   -0.7304    2.6717    0.0743 C   0  0  0  0  0  0  0  0  0  3  0  0
   -1.2619    2.0383   -1.0433 C   0  0  0  0  0  0  0  0  0  4  0  0
   -0.9564    0.7061   -1.2979 C   0  0  0  0  0  0  0  0  0  5  0  0
    0.6772    2.6674    2.1446 C   0  0  0  0  0  0  0  0  0  6  0  0
   -0.1194    0.0082   -0.4346 C   0  0  0  0  0  0  0  0  0  7  0  0
    1.3170   -0.1216    1.6118 C   0  0  0  0  0  0  0  0  0  8  0  0
  1  8  1  0
  7  5  4  0
  1  7  4  0
  2  6  1  0
  4  5  4  0
  3  4  4  0
  2  3  4  0
  1  2  4  0
M  END