Isopropylbenzene
  SciTegic12150910513D

  9  9  0  0  0  0            999 V2000
    0.6889    0.3626    0.1922 C   0  0  0  0  0  0  0  0  0  1  0  0
    0.9588    1.6032    0.7600 C   0  0  0  0  0  0  0  0  0  2  0  0
   -0.0068    2.6034    0.7399 C   0  0  0  0  0  0  0  0  0  3  0  0
   -1.2435    2.3640    0.1516 C   0  0  0  0  0  0  0  0  0  4  0  0
   -1.5142    1.1244   -0.4168 C   0  0  0  0  0  0  0  0  0  5  0  0
   -0.5484    0.1245   -0.3966 C   0  0  0  0  0  0  0  0  0  6  0  0
    1.7359   -0.7209    0.2132 C   0  0  0  0  0  0  0  0  0  7  0  0
    1.1298   -2.1351    0.1234 C   0  0  0  0  0  0  0  0  0  8  0  0
    2.7465   -0.5489    1.3640 C   0  0  0  0  0  0  0  0  0  9  0  0
  7  9  1  0
  7  8  1  0
  1  7  1  0
  6  5  4  0
  1  6  4  0
  4  5  4  0
  3  4  4  0
  2  3  4  0
  1  2  4  0
M  END