Acenaphthylene
  SciTegic12150910513D

 12 14  0  0  0  0            999 V2000
    3.0536    2.0619    0.0992 C   0  0  0  0  0  0  0  0  0  1  0  0
    3.1337    0.6621    0.1416 C   0  0  0  0  0  0  0  0  0  2  0  0
    1.9908   -0.1551    0.1159 C   0  0  0  0  0  0  0  0  0  3  0  0
    0.7314    0.4360    0.0461 C   0  0  0  0  0  0  0  0  0  4  0  0
   -0.4920   -0.2295    0.0128 C   0  0  0  0  0  0  0  0  0  5  0  0
   -1.6799    0.5178   -0.0584 C   0  0  0  0  0  0  0  0  0  6  0  0
   -1.6804    1.9200   -0.0975 C   0  0  0  0  0  0  0  0  0  7  0  0
   -0.4430    2.5458   -0.0625 C   0  0  0  0  0  0  0  0  0  8  0  0
    0.6921    1.8003    0.0064 C   0  0  0  0  0  0  0  0  0  9  0  0
    1.7824    2.6125    0.0300 C   0  0  0  0  0  0  0  0  0 10  0  0
    1.3089    4.0225   -0.0294 C   0  0  0  0  0  0  0  0  0 11  0  0
   -0.0514    3.9817   -0.0859 C   0  0  0  0  0  0  0  0  0 12  0  0
 12  8  1  0
 11 12  2  0
 10 11  1  0
 10  1  4  0
  9 10  4  0
  9  4  4  0
  8  9  4  0
  7  8  4  0
  6  7  4  0
  5  6  4  0
  4  5  4  0
  3  4  4  0
  2  3  4  0
  1  2  4  0
M  END