2-Methylnaphthalene
  SciTegic12150910513D

 11 12  0  0  0  0            999 V2000
    1.4208    0.5244   -0.2171 C   0  0  0  0  0  0  0  0  0  1  0  0
    1.8433    1.3123    0.8485 C   0  0  0  0  0  0  0  0  0  2  0  0
    0.9147    2.0298    1.5938 C   0  0  0  0  0  0  0  0  0  3  0  0
   -0.4363    1.9594    1.2736 C   0  0  0  0  0  0  0  0  0  4  0  0
   -0.8584    1.1717    0.2085 C   0  0  0  0  0  0  0  0  0  5  0  0
   -2.3165    1.0960   -0.1367 C   0  0  0  0  0  0  0  0  0  6  0  0
    3.1942    1.3825    1.1684 C   0  0  0  0  0  0  0  0  0  7  0  0
    4.1228    0.6649    0.4229 C   0  0  0  0  0  0  0  0  0  8  0  0
    3.7004   -0.1227   -0.6423 C   0  0  0  0  0  0  0  0  0  9  0  0
    2.3493   -0.1931   -0.9624 C   0  0  0  0  0  0  0  0  0 10  0  0
    0.0700    0.4541   -0.5371 C   0  0  0  0  0  0  0  0  0 11  0  0
 11  5  4  0
  1 11  4  0
 10  9  4  0
  1 10  4  0
  8  9  4  0
  7  8  4  0
  2  7  4  0
  5  6  1  0
  4  5  4  0
  3  4  4  0
  2  3  4  0
  1  2  4  0
M  END