Fluorene
  SciTegic12150910513D

 13 15  0  0  0  0            999 V2000
   -1.2413    1.2620    1.5960 C   0  0  0  0  0  0  0  0  0  1  0  0
   -1.2709    2.0449    0.4604 C   0  0  0  0  0  0  0  0  0  2  0  0
   -2.5020    2.7284    0.4071 C   0  0  0  0  0  0  0  0  0  3  0  0
   -3.2563    2.3806    1.5087 C   0  0  0  0  0  0  0  0  0  4  0  0
   -4.5210    2.9160    1.7008 C   0  0  0  0  0  0  0  0  0  5  0  0
   -4.9980    3.8126    0.7451 C   0  0  0  0  0  0  0  0  0  6  0  0
   -4.2269    4.1593   -0.3680 C   0  0  0  0  0  0  0  0  0  7  0  0
   -2.9567    3.6170   -0.5541 C   0  0  0  0  0  0  0  0  0  8  0  0
   -0.2148    2.0947   -0.4353 C   0  0  0  0  0  0  0  0  0  9  0  0
    0.9015    1.3121   -0.1458 C   0  0  0  0  0  0  0  0  0 10  0  0
    0.9400    0.5160    1.0024 C   0  0  0  0  0  0  0  0  0 11  0  0
   -0.1343    0.4806    1.8909 C   0  0  0  0  0  0  0  0  0 12  0  0
   -2.5307    1.3814    2.4229 C   0  0  0  0  0  0  0  0  0 13  0  0
 13  4  1  0
  1 13  1  0
 12 11  4  0
  1 12  4  0
 10 11  4  0
  9 10  4  0
  2  9  4  0
  8  7  4  0
  3  8  4  0
  6  7  4  0
  5  6  4  0
  4  5  4  0
  3  4  4  0
  2  3  1  0
  1  2  4  0
M  END