Phenanthrene
  DSViewer          3D                             0

 14 16  0  0  0  0  0  0  0  0999 V2000
    0.6358    1.2775   -0.5069 C   0  0  0  0  0  0  0  0  0  1
    0.6487    0.2470    0.4271 C   0  0  0  0  0  0  0  0  0  2
    1.7717   -0.5629    0.5521 C   0  0  0  0  0  0  0  0  0  3
    2.8812   -0.3417   -0.2570 C   0  0  0  0  0  0  0  0  0  4
    2.8678    0.6883   -1.1904 C   0  0  0  0  0  0  0  0  0  5
    4.0047   -1.1508   -0.1330 C   0  0  0  0  0  0  0  0  0  6
    4.0194   -2.1813    0.8001 C   0  0  0  0  0  0  0  0  0  7
    2.9105   -2.4027    1.6091 C   0  0  0  0  0  0  0  0  0  8
    1.7869   -1.5936    1.4851 C   0  0  0  0  0  0  0  0  0  9
   -0.4615    0.0278    1.2349 C   0  0  0  0  0  0  0  0  0 10
   -1.5839    0.8384    1.1089 C   0  0  0  0  0  0  0  0  0 11
   -1.5964    1.8683    0.1751 C   0  0  0  0  0  0  0  0  0 12
    1.7449    1.4980   -1.3153 C   0  0  0  0  0  0  0  0  0 13
   -0.4865    2.0879   -0.6329 C   0  0  0  0  0  0  0  0  0 14
 14 12  4  0  0  0
  1 14  4  0  0  0
 13  5  4  0  0  0
  1 13  4  0  0  0
 11 12  4  0  0  0
 10 11  4  0  0  0
  2 10  4  0  0  0
  9  8  4  0  0  0
  3  9  4  0  0  0
  7  8  4  0  0  0
  6  7  4  0  0  0
  4  6  4  0  0  0
  4  5  4  0  0  0
  3  4  4  0  0  0
  2  3  4  0  0  0
  1  2  4  0  0  0
M  END