Chlorobenzene
  DSViewer          3D                             0

  7  7  0  0  0  0  0  0  0  0999 V2000
    0.8687    0.4590    0.4356 C   0  0  0  0  0  0  0  0  0  1
    0.9815    1.8071    0.7569 C   0  0  0  0  0  0  0  0  0  2
   -0.0821    2.6700    0.5174 C   0  0  0  0  0  0  0  0  0  3
   -1.2583    2.1848   -0.0434 C   0  0  0  0  0  0  0  0  0  4
   -1.3710    0.8367   -0.3647 C   0  0  0  0  0  0  0  0  0  5
   -0.3075   -0.0263   -0.1252 C   0  0  0  0  0  0  0  0  0  6
    2.1903   -0.6134    0.7332 Cl  0  0  0  0  0  0  0  0  0  7
  1  7  1  0  0  0
  6  5  4  0  0  0
  1  6  4  0  0  0
  4  5  4  0  0  0
  3  4  4  0  0  0
  2  3  4  0  0  0
  1  2  4  0  0  0
M  END