1,3-Dichlorobenzene
  SciTegic12150910513D

  8  8  0  0  0  0            999 V2000
    1.0339    0.4809    0.4878 C   0  0  0  0  0  0  0  0  0  1  0  0
    1.1027    1.7277    1.0993 C   0  0  0  0  0  0  0  0  0  2  0  0
    0.0667    2.6405    0.9354 C   0  0  0  0  0  0  0  0  0  3  0  0
   -1.0379    2.3063    0.1601 C   0  0  0  0  0  0  0  0  0  4  0  0
   -1.1066    1.0594   -0.4514 C   0  0  0  0  0  0  0  0  0  5  0  0
   -2.4793    0.6442   -1.4148 Cl  0  0  0  0  0  0  0  0  0  6  0  0
   -0.0707    0.1466   -0.2876 C   0  0  0  0  0  0  0  0  0  7  0  0
    2.3212   -0.6533    0.6915 Cl  0  0  0  0  0  0  0  0  0  8  0  0
  1  8  1  0
  7  5  4  0
  1  7  4  0
  5  6  1  0
  4  5  4  0
  3  4  4  0
  2  3  4  0
  1  2  4  0
M  END