1,2,4-Trichlorobenzene
  SciTegic12150910513D

  9  9  0  0  0  0            999 V2000
    1.3879    0.4309    0.1227 C   0  0  0  0  0  0  0  0  0  1  0  0
    1.4758    1.4735    1.0384 C   0  0  0  0  0  0  0  0  0  2  0  0
    0.3384    2.1967    1.3796 C   0  0  0  0  0  0  0  0  0  3  0  0
   -0.8865    1.8770    0.8049 C   0  0  0  0  0  0  0  0  0  4  0  0
   -0.9742    0.8345   -0.1107 C   0  0  0  0  0  0  0  0  0  5  0  0
   -2.4969    0.4384   -0.8241 Cl  0  0  0  0  0  0  0  0  0  6  0  0
   -2.3004    2.7749    1.2280 Cl  0  0  0  0  0  0  0  0  0  7  0  0
    0.1630    0.1112   -0.4521 C   0  0  0  0  0  0  0  0  0  8  0  0
    2.8014   -0.4677   -0.3012 Cl  0  0  0  0  0  0  0  0  0  9  0  0
  1  9  1  0
  8  5  4  0
  1  8  4  0
  4  7  1  0
  5  6  1  0
  4  5  4  0
  3  4  4  0
  2  3  4  0
  1  2  4  0
M  END