1,3,5-Trichlorobenzene
  SciTegic12150910513D

  9  9  0  0  0  0            999 V2000
    0.9689    0.2762    0.5503 C   0  0  0  0  0  0  0  0  0  1  0  0
    1.2527    1.6310    0.6809 C   0  0  0  0  0  0  0  0  0  2  0  0
    0.3369    2.5787    0.2381 C   0  0  0  0  0  0  0  0  0  3  0  0
   -0.8626    2.1719   -0.3352 C   0  0  0  0  0  0  0  0  0  4  0  0
   -1.1462    0.8170   -0.4657 C   0  0  0  0  0  0  0  0  0  5  0  0
   -2.6367    0.3113   -1.1782 Cl  0  0  0  0  0  0  0  0  0  6  0  0
    0.6894    4.2623    0.4003 Cl  0  0  0  0  0  0  0  0  0  7  0  0
   -0.2305   -0.1309   -0.0230 C   0  0  0  0  0  0  0  0  0  8  0  0
    2.1069   -0.9016    1.1006 Cl  0  0  0  0  0  0  0  0  0  9  0  0
  1  9  1  0
  8  5  4  0
  1  8  4  0
  3  7  1  0
  5  6  1  0
  4  5  4  0
  3  4  4  0
  2  3  4  0
  1  2  4  0
M  END