Pentachlorobenzene
  SciTegic12150910513D

 11 11  0  0  0  0            999 V2000
    1.1691    0.5792    0.6376 C   0  0  0  0  0  0  0  0  0  1  0  0
    0.9065    1.9188    0.9008 C   0  0  0  0  0  0  0  0  0  2  0  0
   -0.2860    2.4906    0.4726 C   0  0  0  0  0  0  0  0  0  3  0  0
   -1.2159    1.7228   -0.2187 C   0  0  0  0  0  0  0  0  0  4  0  0
   -0.9534    0.3832   -0.4820 C   0  0  0  0  0  0  0  0  0  5  0  0
   -2.1098   -0.5700   -1.3412 Cl  0  0  0  0  0  0  0  0  0  6  0  0
   -2.6977    2.4332   -0.7508 Cl  0  0  0  0  0  0  0  0  0  7  0  0
   -0.6122    4.1549    0.7996 Cl  0  0  0  0  0  0  0  0  0  8  0  0
    2.0621    2.8728    1.7598 Cl  0  0  0  0  0  0  0  0  0  9  0  0
    0.2392   -0.1889   -0.0538 C   0  0  0  0  0  0  0  0  0 10  0  0
    2.6514   -0.1302    1.1702 Cl  0  0  0  0  0  0  0  0  0 11  0  0
  1 11  1  0
 10  5  4  0
  1 10  4  0
  2  9  1  0
  3  8  1  0
  4  7  1  0
  5  6  1  0
  4  5  4  0
  3  4  4  0
  2  3  4  0
  1  2  4  0
M  END