2,4,5-Trichlorotoluene
  SciTegic12150910513D

 10 10  0  0  0  0            999 V2000
    1.1950    1.0557    0.2828 C   0  0  0  0  0  0  0  0  0  1  0  0
    0.7002    2.0771    1.0860 C   0  0  0  0  0  0  0  0  0  2  0  0
   -0.6692    2.3074    1.1533 C   0  0  0  0  0  0  0  0  0  3  0  0
   -1.5436    1.5161    0.4171 C   0  0  0  0  0  0  0  0  0  4  0  0
   -1.0488    0.4948   -0.3860 C   0  0  0  0  0  0  0  0  0  5  0  0
   -2.1363   -0.4877   -1.3003 Cl  0  0  0  0  0  0  0  0  0  6  0  0
   -3.2454    1.8012    0.4998 Cl  0  0  0  0  0  0  0  0  0  7  0  0
    1.7873    3.0602    2.0007 Cl  0  0  0  0  0  0  0  0  0  8  0  0
    0.3206    0.2644   -0.4534 C   0  0  0  0  0  0  0  0  0  9  0  0
    2.6731    0.8074    0.2103 C   0  0  0  0  0  0  0  0  0 10  0  0
  1 10  1  0
  9  5  4  0
  1  9  4  0
  2  8  1  0
  4  7  1  0
  5  6  1  0
  4  5  4  0
  3  4  4  0
  2  3  4  0
  1  2  4  0
M  END