Hexachlorobenzene
  SciTegic12150910513D

 12 12  0  0  0  0            999 V2000
    0.9932    0.5559    0.7004 C   0  0  0  0  0  0  0  0  0  1  0  0
    0.8643    1.9138    0.9683 C   0  0  0  0  0  0  0  0  0  2  0  0
   -0.2575    2.6059    0.5268 C   0  0  0  0  0  0  0  0  0  3  0  0
   -1.2505    1.9401   -0.1825 C   0  0  0  0  0  0  0  0  0  4  0  0
   -1.1215    0.5821   -0.4504 C   0  0  0  0  0  0  0  0  0  5  0  0
   -2.3552   -0.2452   -1.3317 Cl  0  0  0  0  0  0  0  0  0  6  0  0
   -2.6443    2.8000   -0.7311 Cl  0  0  0  0  0  0  0  0  0  7  0  0
   -0.4177    4.2932    0.8596 Cl  0  0  0  0  0  0  0  0  0  8  0  0
    2.0980    2.7412    1.8496 Cl  0  0  0  0  0  0  0  0  0  9  0  0
    0.0003   -0.1100   -0.0089 C   0  0  0  0  0  0  0  0  0 10  0  0
    0.1605   -1.7972   -0.3417 Cl  0  0  0  0  0  0  0  0  0 11  0  0
    2.3871   -0.3040    1.2490 Cl  0  0  0  0  0  0  0  0  0 12  0  0
  1 12  1  0
 10 11  1  0
 10  5  4  0
  1 10  4  0
  2  9  1  0
  3  8  1  0
  4  7  1  0
  5  6  1  0
  4  5  4  0
  3  4  4  0
  2  3  4  0
  1  2  4  0
M  END