1,3-Dibromobenzene
  SciTegic12150910513D

  8  8  0  0  0  0            999 V2000
    0.9708    0.4630    0.6086 C   0  0  0  0  0  0  0  0  0  1  0  0
    1.1118    1.7599    1.0896 C   0  0  0  0  0  0  0  0  0  2  0  0
    0.1616    2.7251    0.7753 C   0  0  0  0  0  0  0  0  0  3  0  0
   -0.9295    2.3932   -0.0200 C   0  0  0  0  0  0  0  0  0  4  0  0
   -1.0703    1.0962   -0.5010 C   0  0  0  0  0  0  0  0  0  5  0  0
   -2.5619    0.6426   -1.5883 Br  0  0  0  0  0  0  0  0  0  6  0  0
   -0.1202    0.1310   -0.1868 C   0  0  0  0  0  0  0  0  0  7  0  0
    2.2697   -0.8565    1.0383 Br  0  0  0  0  0  0  0  0  0  8  0  0
  1  8  1  0
  7  5  4  0
  1  7  4  0
  5  6  1  0
  4  5  4  0
  3  4  4  0
  2  3  4  0
  1  2  4  0
M  END