Hexabromobenzene
  SciTegic12150910513D

 12 12  0  0  0  0            999 V2000
    1.0001    0.5763    0.7066 C   0  0  0  0  0  0  0  0  0  1  0  0
    0.8528    1.9429    0.9146 C   0  0  0  0  0  0  0  0  0  2  0  0
   -0.2930    2.5937    0.4721 C   0  0  0  0  0  0  0  0  0  3  0  0
   -1.2916    1.8780   -0.1784 C   0  0  0  0  0  0  0  0  0  4  0  0
   -1.1443    0.5115   -0.3863 C   0  0  0  0  0  0  0  0  0  5  0  0
   -2.5092   -0.4668   -1.2755 Br  0  0  0  0  0  0  0  0  0  6  0  0
   -2.8579    2.7677   -0.7832 Br  0  0  0  0  0  0  0  0  0  7  0  0
   -0.4944    4.4617    0.7564 Br  0  0  0  0  0  0  0  0  0  8  0  0
    2.2178    2.9212    1.8037 Br  0  0  0  0  0  0  0  0  0  9  0  0
    0.0016   -0.1394    0.0561 C   0  0  0  0  0  0  0  0  0 10  0  0
    0.2030   -2.0073   -0.2282 Br  0  0  0  0  0  0  0  0  0 11  0  0
    2.5665   -0.3133    1.3114 Br  0  0  0  0  0  0  0  0  0 12  0  0
  1 12  1  0
 10 11  1  0
 10  5  4  0
  1 10  4  0
  2  9  1  0
  3  8  1  0
  4  7  1  0
  5  6  1  0
  4  5  4  0
  3  4  4  0
  2  3  4  0
  1  2  4  0
M  END