1,2-Dibromobenzene
  SciTegic12150910513D

  8  8  0  0  0  0            999 V2000
    0.3760    0.6450    0.5917 C   0  0  0  0  0  0  0  0  0  1  0  0
    0.0196    1.9522    0.9033 C   0  0  0  0  0  0  0  0  0  2  0  0
   -0.8126    2.6683    0.0502 C   0  0  0  0  0  0  0  0  0  3  0  0
   -1.2882    2.0767   -1.1148 C   0  0  0  0  0  0  0  0  0  4  0  0
   -0.9317    0.7694   -1.4264 C   0  0  0  0  0  0  0  0  0  5  0  0
    0.6704    2.7596    2.4960 Br  0  0  0  0  0  0  0  0  0  6  0  0
   -0.0995    0.0533   -0.5732 C   0  0  0  0  0  0  0  0  0  7  0  0
    1.5136   -0.3326    1.7589 Br  0  0  0  0  0  0  0  0  0  8  0  0
  1  8  1  0
  7  5  4  0
  1  7  4  0
  2  6  1  0
  4  5  4  0
  3  4  4  0
  2  3  4  0
  1  2  4  0
M  END