1,2,4-Tribromobenzene
  SciTegic12150910513D

  9  9  0  0  0  0            999 V2000
    1.4030    0.4382    0.1011 C   0  0  0  0  0  0  0  0  0  1  0  0
    1.4985    1.4489    1.0512 C   0  0  0  0  0  0  0  0  0  2  0  0
    0.3651    2.1635    1.4223 C   0  0  0  0  0  0  0  0  0  3  0  0
   -0.8636    1.8671    0.8431 C   0  0  0  0  0  0  0  0  0  4  0  0
   -0.9590    0.8565   -0.1069 C   0  0  0  0  0  0  0  0  0  5  0  0
   -2.6393    0.4526   -0.8978 Br  0  0  0  0  0  0  0  0  0  6  0  0
   -2.4138    2.8432    1.3495 Br  0  0  0  0  0  0  0  0  0  7  0  0
    0.1743    0.1418   -0.4781 C   0  0  0  0  0  0  0  0  0  8  0  0
    2.9526   -0.5387   -0.4061 Br  0  0  0  0  0  0  0  0  0  9  0  0
  1  9  1  0
  8  5  4  0
  1  8  4  0
  4  7  1  0
  5  6  1  0
  4  5  4  0
  3  4  4  0
  2  3  4  0
  1  2  4  0
M  END