2,3-Dichloronaphthalene
  SciTegic12150910513D

 12 13  0  0  0  0            999 V2000
    1.2845    0.6384   -0.2507 C   0  0  0  0  0  0  0  0  0  1  0  0
    1.4902    1.4169    0.8834 C   0  0  0  0  0  0  0  0  0  2  0  0
    2.7824    1.6630    1.3328 C   0  0  0  0  0  0  0  0  0  3  0  0
    3.8690    1.1306    0.6482 C   0  0  0  0  0  0  0  0  0  4  0  0
    3.6634    0.3523   -0.4855 C   0  0  0  0  0  0  0  0  0  5  0  0
    0.4038    1.9493    1.5680 C   0  0  0  0  0  0  0  0  0  6  0  0
   -0.8882    1.7029    1.1182 C   0  0  0  0  0  0  0  0  0  7  0  0
   -1.0939    0.9247   -0.0154 C   0  0  0  0  0  0  0  0  0  8  0  0
   -2.7002    0.6198   -0.5726 Cl  0  0  0  0  0  0  0  0  0  9  0  0
   -2.2394    2.3637    1.9677 Cl  0  0  0  0  0  0  0  0  0 10  0  0
    2.3710    0.1061   -0.9351 C   0  0  0  0  0  0  0  0  0 11  0  0
   -0.0076    0.3922   -0.7002 C   0  0  0  0  0  0  0  0  0 12  0  0
 12  8  4  0
  1 12  4  0
 11  5  4  0
  1 11  4  0
  7 10  1  0
  8  9  1  0
  7  8  4  0
  6  7  4  0
  2  6  4  0
  4  5  4  0
  3  4  4  0
  2  3  4  0
  1  2  4  0
M  END