2,7-Dichloronaphthalene
  DSViewer          3D                             0

 12 13  0  0  0  0  0  0  0  0999 V2000
    0.9831    0.9030   -0.1979 C   0  0  0  0  0  0  0  0  0  1
    1.1011    1.5674    1.0184 C   0  0  0  0  0  0  0  0  0  2
    2.3588    1.8166    1.5554 C   0  0  0  0  0  0  0  0  0  3
    3.4986    1.4015    0.8763 C   0  0  0  0  0  0  0  0  0  4
    3.3805    0.7373   -0.3396 C   0  0  0  0  0  0  0  0  0  5
    4.7973    0.2217   -1.1831 Cl  0  0  0  0  0  0  0  0  0  6
   -0.0386    1.9825    1.6974 C   0  0  0  0  0  0  0  0  0  7
   -1.2964    1.7332    1.1602 C   0  0  0  0  0  0  0  0  0  8
   -1.4142    1.0691   -0.0557 C   0  0  0  0  0  0  0  0  0  9
   -2.9775    0.7596   -0.7227 Cl  0  0  0  0  0  0  0  0  0 10
    2.1228    0.4880   -0.8769 C   0  0  0  0  0  0  0  0  0 11
   -0.2745    0.6539   -0.7350 C   0  0  0  0  0  0  0  0  0 12
 12  9  4  0  0  0
  1 12  4  0  0  0
 11  5  4  0  0  0
  1 11  4  0  0  0
  9 10  1  0  0  0
  8  9  4  0  0  0
  7  8  4  0  0  0
  2  7  4  0  0  0
  5  6  1  0  0  0
  4  5  4  0  0  0
  3  4  4  0  0  0
  2  3  4  0  0  0
  1  2  4  0  0  0
M  END