1,3,7-Trichloronaphthalene
  SciTegic12150910513D

 13 14  0  0  0  0            999 V2000
   -1.3045    2.9335    1.1926 Cl  0  0  0  0  0  0  0  0  0  1  0  0
   -0.4060    1.6898    0.3988 C   0  0  0  0  0  0  0  0  0  2  0  0
   -0.2404    1.7247   -0.9813 C   0  0  0  0  0  0  0  0  0  3  0  0
    0.4825    0.7241   -1.6206 C   0  0  0  0  0  0  0  0  0  4  0  0
    1.0397   -0.3114   -0.8793 C   0  0  0  0  0  0  0  0  0  5  0  0
    1.7627   -1.3123   -1.5177 C   0  0  0  0  0  0  0  0  0  6  0  0
    2.3198   -2.3477   -0.7757 C   0  0  0  0  0  0  0  0  0  7  0  0
    3.2184   -3.5918   -1.5689 Cl  0  0  0  0  0  0  0  0  0  8  0  0
    2.1540   -2.3824    0.6043 C   0  0  0  0  0  0  0  0  0  9  0  0
    1.4309   -1.3812    1.2426 C   0  0  0  0  0  0  0  0  0 10  0  0
    1.2238   -1.4225    2.9568 Cl  0  0  0  0  0  0  0  0  0 11  0  0
    0.8739   -0.3461    0.5011 C   0  0  0  0  0  0  0  0  0 12  0  0
    0.1511    0.6543    1.1404 C   0  0  0  0  0  0  0  0  0 13  0  0
 13  2  4  0
 12 13  4  0
 12  5  4  0
 10 12  4  0
 10 11  1  0
  9 10  4  0
  7  9  4  0
  7  8  1  0
  6  7  4  0
  5  6  4  0
  4  5  4  0
  3  4  4  0
  2  3  4  0
  1  2  1  0
M  END