1,3,5,7-Tetrachloronaphthalene
  DSViewer          3D                             0

 14 15  0  0  0  0  0  0  0  0999 V2000
   -1.8820    2.6821    1.0320 Cl  0  0  0  0  0  0  0  0  0  1
   -0.5823    1.6664    0.5188 C   0  0  0  0  0  0  0  0  0  2
    0.4782    2.2052   -0.2010 C   0  0  0  0  0  0  0  0  0  3
    1.5241    1.3879   -0.6140 C   0  0  0  0  0  0  0  0  0  4
    2.8423    2.0554   -1.5084 Cl  0  0  0  0  0  0  0  0  0  5
    1.5094    0.0325   -0.3072 C   0  0  0  0  0  0  0  0  0  6
    2.5554   -0.7843   -0.7203 C   0  0  0  0  0  0  0  0  0  7
    2.5404   -2.1400   -0.4133 C   0  0  0  0  0  0  0  0  0  8
    3.8401   -3.1557   -0.9265 Cl  0  0  0  0  0  0  0  0  0  9
    1.4799   -2.6788    0.3066 C   0  0  0  0  0  0  0  0  0 10
    0.4339   -1.8615    0.7196 C   0  0  0  0  0  0  0  0  0 11
   -0.8843   -2.5289    1.6139 Cl  0  0  0  0  0  0  0  0  0 12
    0.4487   -0.5061    0.4128 C   0  0  0  0  0  0  0  0  0 13
   -0.5973    0.3107    0.8259 C   0  0  0  0  0  0  0  0  0 14
 14  2  4  0  0  0
 13 14  4  0  0  0
 13  6  4  0  0  0
 11 13  4  0  0  0
 11 12  1  0  0  0
 10 11  4  0  0  0
  8 10  4  0  0  0
  8  9  1  0  0  0
  7  8  4  0  0  0
  6  7  4  0  0  0
  4  6  4  0  0  0
  4  5  1  0  0  0
  3  4  4  0  0  0
  2  3  4  0  0  0
  1  2  1  0  0  0
M  END