2,4'-Dichlorobiphenyl
  SciTegic12150910513D

 14 15  0  0  0  0            999 V2000
   -3.4621    3.5013    3.9050 Cl  0  0  0  0  0  0  0  0  0  1  0  0
   -2.3335    2.8359    2.7786 C   0  0  0  0  0  0  0  0  0  2  0  0
   -1.4991    1.7956    3.1604 C   0  0  0  0  0  0  0  0  0  3  0  0
   -0.5959    1.2688    2.2463 C   0  0  0  0  0  0  0  0  0  4  0  0
   -0.5098    1.7652    0.9485 C   0  0  0  0  0  0  0  0  0  5  0  0
   -1.3550    2.8168    0.5666 C   0  0  0  0  0  0  0  0  0  6  0  0
   -1.3494    3.5269   -1.0189 Cl  0  0  0  0  0  0  0  0  0  7  0  0
   -2.2576    3.3402    1.4871 C   0  0  0  0  0  0  0  0  0  8  0  0
    0.5046    1.1144    0.0531 C   0  0  0  0  0  0  0  0  0  9  0  0
    0.7100    1.4973   -1.2684 C   0  0  0  0  0  0  0  0  0 10  0  0
    1.6641    0.8588   -2.0523 C   0  0  0  0  0  0  0  0  0 11  0  0
    2.4247   -0.1737   -1.5178 C   0  0  0  0  0  0  0  0  0 12  0  0
    2.2267   -0.5633   -0.1989 C   0  0  0  0  0  0  0  0  0 13  0  0
    1.2710    0.0793    0.5798 C   0  0  0  0  0  0  0  0  0 14  0  0
 14  9  4  0
 13 14  4  0
 12 13  4  0
 11 12  4  0
 10 11  4  0
  9 10  4  0
  5  9  1  0
  8  2  4  0
  6  8  4  0
  6  7  1  0
  5  6  4  0
  4  5  4  0
  3  4  4  0
  2  3  4  0
  1  2  1  0
M  END