3,5-Dichlorobiphenyl
  SciTegic12150910513D

 14 15  0  0  0  0            999 V2000
    0.0650    2.8306   -0.5538 C   0  0  0  0  0  0  0  0  0  1  0  0
   -0.5541    4.0662   -0.4029 C   0  0  0  0  0  0  0  0  0  2  0  0
   -0.9054    4.5174    0.8645 C   0  0  0  0  0  0  0  0  0  3  0  0
   -0.6375    3.7332    1.9809 C   0  0  0  0  0  0  0  0  0  4  0  0
   -0.0184    2.4976    1.8300 C   0  0  0  0  0  0  0  0  0  5  0  0
    0.3328    2.0464    0.5627 C   0  0  0  0  0  0  0  0  0  6  0  0
    0.9834    0.7482    0.4041 C   0  0  0  0  0  0  0  0  0  7  0  0
    1.3346    0.2969   -0.8631 C   0  0  0  0  0  0  0  0  0  8  0  0
    1.9537   -0.9386   -1.0139 C   0  0  0  0  0  0  0  0  0  9  0  0
    2.3901   -1.4991   -2.5886 Cl  0  0  0  0  0  0  0  0  0 10  0  0
    2.2217   -1.7229    0.1023 C   0  0  0  0  0  0  0  0  0 11  0  0
    1.8703   -1.2714    1.3694 C   0  0  0  0  0  0  0  0  0 12  0  0
    2.2030   -2.2457    2.7567 Cl  0  0  0  0  0  0  0  0  0 13  0  0
    1.2512   -0.0360    1.5204 C   0  0  0  0  0  0  0  0  0 14  0  0
 14  7  4  0
 12 14  4  0
 12 13  1  0
 11 12  4  0
  9 11  4  0
  9 10  1  0
  8  9  4  0
  7  8  4  0
  6  7  1  0
  6  1  4  0
  5  6  4  0
  4  5  4  0
  3  4  4  0
  2  3  4  0
  1  2  4  0
M  END