2,2',6,6'-Tetrachlorobiphenyl
  SciTegic12150910513D

 16 17  0  0  0  0            999 V2000
    0.7724    1.8642    1.4015 C   0  0  0  0  0  0  0  0  0  1  0  0
    0.1519    2.8544    0.6333 C   0  0  0  0  0  0  0  0  0  2  0  0
   -0.6637    2.4655   -0.4340 C   0  0  0  0  0  0  0  0  0  3  0  0
   -0.8486    1.1187   -0.7243 C   0  0  0  0  0  0  0  0  0  4  0  0
   -0.2317    0.1429    0.0451 C   0  0  0  0  0  0  0  0  0  5  0  0
   -1.4332    3.6342   -1.4594 Cl  0  0  0  0  0  0  0  0  0  6  0  0
    0.3593    4.3203    0.9513 C   0  0  0  0  0  0  0  0  0  7  0  0
    1.6482    4.8578    1.0252 C   0  0  0  0  0  0  0  0  0  8  0  0
    1.8337    6.2047    1.3142 C   0  0  0  0  0  0  0  0  0  9  0  0
    0.7429    7.0318    1.5395 C   0  0  0  0  0  0  0  0  0 10  0  0
   -0.5393    6.5063    1.4713 C   0  0  0  0  0  0  0  0  0 11  0  0
    3.0534    3.8886    0.7164 Cl  0  0  0  0  0  0  0  0  0 12  0  0
   -0.7345    5.1620    1.1766 C   0  0  0  0  0  0  0  0  0 13  0  0
   -2.3618    4.5617    1.1449 Cl  0  0  0  0  0  0  0  0  0 14  0  0
    0.5766    0.5197    1.1079 C   0  0  0  0  0  0  0  0  0 15  0  0
    1.7639    2.2650    2.7673 Cl  0  0  0  0  0  0  0  0  0 16  0  0
  1 16  1  0
 15  5  4  0
  1 15  4  0
 13 14  1  0
 13 11  4  0
  7 13  4  0
  8 12  1  0
 10 11  4  0
  9 10  4  0
  8  9  4  0
  7  8  4  0
  2  7  1  0
  3  6  1  0
  4  5  4  0
  3  4  4  0
  2  3  4  0
  1  2  4  0
M  END