2,2',4,4'-Tetrachlorobiphenyl
  DSViewer          3D                             0

 16 17  0  0  0  0  0  0  0  0999 V2000
   -4.3395    3.9206    2.4989 Cl  0  0  0  0  0  0  0  0  0  1
   -2.9273    3.1377    1.8841 C   0  0  0  0  0  0  0  0  0  2
   -2.5690    1.8806    2.3404 C   0  0  0  0  0  0  0  0  0  3
   -1.4304    1.2698    1.8333 C   0  0  0  0  0  0  0  0  0  4
   -0.6201    1.8716    0.8733 C   0  0  0  0  0  0  0  0  0  5
   -0.9980    3.1494    0.4196 C   0  0  0  0  0  0  0  0  0  6
   -0.1253    4.0682   -0.7733 Cl  0  0  0  0  0  0  0  0  0  7
   -2.1401    3.7614    0.9283 C   0  0  0  0  0  0  0  0  0  8
    0.6469    1.1087    0.3599 C   0  0  0  0  0  0  0  0  0  9
    1.4701    1.7204   -0.5828 C   0  0  0  0  0  0  0  0  0 10
    2.6115    1.1117   -1.0861 C   0  0  0  0  0  0  0  0  0 11
    2.9593   -0.1534   -0.6440 C   0  0  0  0  0  0  0  0  0 12
    4.3752   -0.9335   -1.2539 Cl  0  0  0  0  0  0  0  0  0 13
    2.1587   -0.7873    0.2938 C   0  0  0  0  0  0  0  0  0 14
    1.0141   -0.1772    0.7991 C   0  0  0  0  0  0  0  0  0 15
    0.1226   -1.1103    1.9668 Cl  0  0  0  0  0  0  0  0  0 16
 15 16  1  0  0  0
 15  9  4  0  0  0
 14 15  4  0  0  0
 12 14  4  0  0  0
 12 13  1  0  0  0
 11 12  4  0  0  0
 10 11  4  0  0  0
  9 10  4  0  0  0
  5  9  1  0  0  0
  8  2  4  0  0  0
  6  8  4  0  0  0
  6  7  1  0  0  0
  5  6  4  0  0  0
  4  5  4  0  0  0
  3  4  4  0  0  0
  2  3  4  0  0  0
  1  2  1  0  0  0
M  END