2,2',3,3'-Tetrachlorobiphenyl
  DSViewer          3D                             0

 16 17  0  0  0  0  0  0  0  0999 V2000
   -2.4774    4.3134    2.0669 Cl  0  0  0  0  0  0  0  0  0  1
   -0.9965    3.8488    1.3087 C   0  0  0  0  0  0  0  0  0  2
   -0.0979    4.8280    0.9102 C   0  0  0  0  0  0  0  0  0  3
    1.0781    4.4553    0.2802 C   0  0  0  0  0  0  0  0  0  4
    1.3422    3.1097    0.0649 C   0  0  0  0  0  0  0  0  0  5
    0.4650    2.1082    0.4742 C   0  0  0  0  0  0  0  0  0  6
   -0.7326    2.4983    1.0987 C   0  0  0  0  0  0  0  0  0  7
   -1.9766    1.4226    1.5984 Cl  0  0  0  0  0  0  0  0  0  8
    0.9499    0.6905    0.1426 C   0  0  0  0  0  0  0  0  0  9
    1.8636    0.6442   -0.9088 C   0  0  0  0  0  0  0  0  0 10
    2.4129   -0.5491   -1.3562 C   0  0  0  0  0  0  0  0  0 11
    2.0595   -1.7377   -0.7388 C   0  0  0  0  0  0  0  0  0 12
    1.1672   -1.7140    0.3234 C   0  0  0  0  0  0  0  0  0 13
    0.7491   -3.1915    1.1144 Cl  0  0  0  0  0  0  0  0  0 14
    0.6110   -0.5191    0.7719 C   0  0  0  0  0  0  0  0  0 15
   -0.4282   -0.6612    2.1340 Cl  0  0  0  0  0  0  0  0  0 16
 15 16  1  0  0  0
 15  9  4  0  0  0
 13 15  4  0  0  0
 13 14  1  0  0  0
 12 13  4  0  0  0
 11 12  4  0  0  0
 10 11  4  0  0  0
  9 10  4  0  0  0
  6  9  1  0  0  0
  7  8  1  0  0  0
  7  2  4  0  0  0
  6  7  4  0  0  0
  5  6  4  0  0  0
  4  5  4  0  0  0
  3  4  4  0  0  0
  2  3  4  0  0  0
  1  2  1  0  0  0
M  END