2,3-Dichlorobiphenyl
  DSViewer          3D                             0

 14 15  0  0  0  0  0  0  0  0999 V2000
   -2.4581   -1.2563    0.3018 Cl  0  0  0  0  0  0  0  0  0  1
   -0.7424   -1.3833    0.1465 C   0  0  0  0  0  0  0  0  0  2
   -0.1752   -2.5924   -0.2344 C   0  0  0  0  0  0  0  0  0  3
    1.2024   -2.6965   -0.3597 C   0  0  0  0  0  0  0  0  0  4
    2.0020   -1.5906   -0.1030 C   0  0  0  0  0  0  0  0  0  5
    1.4468   -0.3728    0.2795 C   0  0  0  0  0  0  0  0  0  6
    2.4121    0.7496    0.5292 C   0  0  0  0  0  0  0  0  0  7
    2.0128    2.0245    0.9170 C   0  0  0  0  0  0  0  0  0  8
    2.9511    3.0267    1.1347 C   0  0  0  0  0  0  0  0  0  9
    4.3041    2.7604    0.9653 C   0  0  0  0  0  0  0  0  0 10
    4.7127    1.4902    0.5782 C   0  0  0  0  0  0  0  0  0 11
    3.7693    0.4922    0.3621 C   0  0  0  0  0  0  0  0  0 12
    0.0541   -0.2719    0.4049 C   0  0  0  0  0  0  0  0  0 13
   -0.7650    1.1865    0.8738 Cl  0  0  0  0  0  0  0  0  0 14
 13 14  1  0  0  0
 13  2  4  0  0  0
  6 13  4  0  0  0
 12  7  4  0  0  0
 11 12  4  0  0  0
 10 11  4  0  0  0
  9 10  4  0  0  0
  8  9  4  0  0  0
  7  8  4  0  0  0
  6  7  1  0  0  0
  5  6  4  0  0  0
  4  5  4  0  0  0
  3  4  4  0  0  0
  2  3  4  0  0  0
  1  2  1  0  0  0
M  END