2,2',5-Trichlorobiphenyl
  DSViewer          3D                             0

 15 16  0  0  0  0  0  0  0  0999 V2000
    0.6695    5.5540    1.4339 Cl  0  0  0  0  0  0  0  0  0  1
    0.4599    3.8793    1.8025 C   0  0  0  0  0  0  0  0  0  2
    0.2597    3.4732    3.1101 C   0  0  0  0  0  0  0  0  0  3
    0.0989    2.1218    3.3749 C   0  0  0  0  0  0  0  0  0  4
    0.1277    1.1660    2.3623 C   0  0  0  0  0  0  0  0  0  5
   -0.0626   -0.4433    2.9086 Cl  0  0  0  0  0  0  0  0  0  6
    0.3241    1.5684    1.0272 C   0  0  0  0  0  0  0  0  0  7
    0.4907    2.9323    0.7889 C   0  0  0  0  0  0  0  0  0  8
    0.4028    0.7297   -0.2801 C   0  0  0  0  0  0  0  0  0  9
    0.7917    1.4982   -1.3769 C   0  0  0  0  0  0  0  0  0 10
    0.9323    0.9697   -2.6524 C   0  0  0  0  0  0  0  0  0 11
    0.6767   -0.3740   -2.8634 C   0  0  0  0  0  0  0  0  0 12
    0.2801   -1.1589   -1.7915 C   0  0  0  0  0  0  0  0  0 13
    0.1388   -0.6345   -0.5092 C   0  0  0  0  0  0  0  0  0 14
   -0.3853   -1.7666    0.6604 Cl  0  0  0  0  0  0  0  0  0 15
 14 15  1  0  0  0
 14  9  4  0  0  0
 13 14  4  0  0  0
 12 13  4  0  0  0
 11 12  4  0  0  0
 10 11  4  0  0  0
  9 10  4  0  0  0
  7  9  1  0  0  0
  8  2  4  0  0  0
  7  8  4  0  0  0
  5  7  4  0  0  0
  5  6  1  0  0  0
  4  5  4  0  0  0
  3  4  4  0  0  0
  2  3  4  0  0  0
  1  2  1  0  0  0
M  END