2,3',4',5-Tetrachlorobiphenyl
  DSViewer          3D                             0

 16 17  0  0  0  0  0  0  0  0999 V2000
   -0.1879    5.3179    0.1602 Cl  0  0  0  0  0  0  0  0  0  1
   -0.0289    3.9114    1.1506 C   0  0  0  0  0  0  0  0  0  2
   -0.2167    4.0008    2.5222 C   0  0  0  0  0  0  0  0  0  3
   -0.0860    2.8628    3.3070 C   0  0  0  0  0  0  0  0  0  4
    0.2308    1.6327    2.7387 C   0  0  0  0  0  0  0  0  0  5
    0.3679    0.2798    3.8200 Cl  0  0  0  0  0  0  0  0  0  6
    0.4212    1.5398    1.3526 C   0  0  0  0  0  0  0  0  0  7
    0.2875    2.6874    0.5762 C   0  0  0  0  0  0  0  0  0  8
    0.7652    0.2767    0.6187 C   0  0  0  0  0  0  0  0  0  9
    0.9323   -0.9504    1.2525 C   0  0  0  0  0  0  0  0  0 10
    1.2510   -2.0892    0.5219 C   0  0  0  0  0  0  0  0  0 11
    1.4057   -2.0082   -0.8563 C   0  0  0  0  0  0  0  0  0 12
    1.8017   -3.4204   -1.7692 Cl  0  0  0  0  0  0  0  0  0 13
    1.2408   -0.7875   -1.4984 C   0  0  0  0  0  0  0  0  0 14
    1.4319   -0.6805   -3.2118 Cl  0  0  0  0  0  0  0  0  0 15
    0.9222    0.3476   -0.7620 C   0  0  0  0  0  0  0  0  0 16
 16  9  4  0  0  0
 14 16  4  0  0  0
 14 15  1  0  0  0
 12 14  4  0  0  0
 12 13  1  0  0  0
 11 12  4  0  0  0
 10 11  4  0  0  0
  9 10  4  0  0  0
  7  9  1  0  0  0
  8  2  4  0  0  0
  7  8  4  0  0  0
  5  7  4  0  0  0
  5  6  1  0  0  0
  4  5  4  0  0  0
  3  4  4  0  0  0
  2  3  4  0  0  0
  1  2  1  0  0  0
M  END