2,2',3,5'-Tetrachlorobiphenyl
  DSViewer          3D                             0

 16 17  0  0  0  0  0  0  0  0999 V2000
    1.0559    5.5563   -0.1155 Cl  0  0  0  0  0  0  0  0  0  1
    0.4954    4.1389    0.6977 C   0  0  0  0  0  0  0  0  0  2
   -0.2243    4.2500    1.8753 C   0  0  0  0  0  0  0  0  0  3
   -0.6698    3.0966    2.5034 C   0  0  0  0  0  0  0  0  0  4
   -0.3998    1.8324    1.9862 C   0  0  0  0  0  0  0  0  0  5
   -1.0830    0.5298    2.8692 Cl  0  0  0  0  0  0  0  0  0  6
    0.3429    1.7087    0.7978 C   0  0  0  0  0  0  0  0  0  7
    0.7655    2.8819    0.1752 C   0  0  0  0  0  0  0  0  0  8
    0.7595    0.4356    0.0319 C   0  0  0  0  0  0  0  0  0  9
    1.1110    0.6873   -1.2931 C   0  0  0  0  0  0  0  0  0 10
    1.5143   -0.3197   -2.1584 C   0  0  0  0  0  0  0  0  0 11
    1.5839   -1.6245   -1.7003 C   0  0  0  0  0  0  0  0  0 12
    1.2552   -1.8994   -0.3810 C   0  0  0  0  0  0  0  0  0 13
    1.3656   -3.5228    0.1989 Cl  0  0  0  0  0  0  0  0  0 14
    0.8470   -0.8918    0.4890 C   0  0  0  0  0  0  0  0  0 15
    0.5301   -1.4113    2.0926 Cl  0  0  0  0  0  0  0  0  0 16
 15 16  1  0  0  0
 15  9  4  0  0  0
 13 15  4  0  0  0
 13 14  1  0  0  0
 12 13  4  0  0  0
 11 12  4  0  0  0
 10 11  4  0  0  0
  9 10  4  0  0  0
  7  9  1  0  0  0
  8  2  4  0  0  0
  7  8  4  0  0  0
  5  7  4  0  0  0
  5  6  1  0  0  0
  4  5  4  0  0  0
  3  4  4  0  0  0
  2  3  4  0  0  0
  1  2  1  0  0  0
M  END