2,2',5,5'-Tetrachlorobiphenyl
  SciTegic12150910513D

 16 17  0  0  0  0            999 V2000
    1.9973    2.6047    0.8046 C   0  0  0  0  0  0  0  0  0  1  0  0
    2.0730    3.7020    1.6510 C   0  0  0  0  0  0  0  0  0  2  0  0
    3.1424    5.0081    1.2842 Cl  0  0  0  0  0  0  0  0  0  3  0  0
    1.2883    3.7437    2.7911 C   0  0  0  0  0  0  0  0  0  4  0  0
    0.4398    2.6809    3.0620 C   0  0  0  0  0  0  0  0  0  5  0  0
    0.3628    1.5786    2.2151 C   0  0  0  0  0  0  0  0  0  6  0  0
   -0.7543    0.3362    2.7033 Cl  0  0  0  0  0  0  0  0  0  7  0  0
    1.1547    1.5240    1.0530 C   0  0  0  0  0  0  0  0  0  8  0  0
    1.1366    0.3264    0.0467 C   0  0  0  0  0  0  0  0  0  9  0  0
    1.8935    0.2925   -1.1394 C   0  0  0  0  0  0  0  0  0 10  0  0
    2.9512    1.5697   -1.6680 Cl  0  0  0  0  0  0  0  0  0 11  0  0
    1.8233   -0.8138   -1.9816 C   0  0  0  0  0  0  0  0  0 12  0  0
    1.0178   -1.9019   -1.6814 C   0  0  0  0  0  0  0  0  0 13  0  0
    0.2684   -1.8809   -0.5172 C   0  0  0  0  0  0  0  0  0 14  0  0
   -0.7444   -3.2204   -0.1118 Cl  0  0  0  0  0  0  0  0  0 15  0  0
    0.3357   -0.7788    0.3235 C   0  0  0  0  0  0  0  0  0 16  0  0
 16  9  4  0
 14 16  4  0
 14 15  1  0
 13 14  4  0
 12 13  4  0
 10 12  4  0
 10 11  1  0
  9 10  4  0
  8  9  1  0
  8  1  4  0
  6  8  4  0
  6  7  1  0
  5  6  4  0
  4  5  4  0
  2  4  4  0
  2  3  1  0
  1  2  4  0
M  END