2,2',3,5,5',6'-Hexachlorobiphenyl
  DSViewer          3D                             0

 18 19  0  0  0  0  0  0  0  0999 V2000
   -2.9596    2.2641    2.5255 Cl  0  0  0  0  0  0  0  0  0  1
   -1.3013    2.3075    2.0435 C   0  0  0  0  0  0  0  0  0  2
   -0.4511    3.2724    2.5620 C   0  0  0  0  0  0  0  0  0  3
    0.8804    3.2909    2.1705 C   0  0  0  0  0  0  0  0  0  4
    1.9496    4.4748    2.8326 Cl  0  0  0  0  0  0  0  0  0  5
    1.3672    2.3592    1.2590 C   0  0  0  0  0  0  0  0  0  6
    3.0578    2.4350    0.8809 Cl  0  0  0  0  0  0  0  0  0  7
    0.5139    1.3864    0.7213 C   0  0  0  0  0  0  0  0  0  8
   -0.8158    1.3756    1.1359 C   0  0  0  0  0  0  0  0  0  9
    0.9672    0.3295   -0.2890 C   0  0  0  0  0  0  0  0  0 10
    1.7665    0.6542   -1.3946 C   0  0  0  0  0  0  0  0  0 11
    2.2572    2.2788   -1.7492 Cl  0  0  0  0  0  0  0  0  0 12
    2.1511   -0.3280   -2.2998 C   0  0  0  0  0  0  0  0  0 13
    1.7557   -1.6447   -2.1258 C   0  0  0  0  0  0  0  0  0 14
    0.9568   -1.9760   -1.0429 C   0  0  0  0  0  0  0  0  0 15
    0.4541   -3.6132   -0.8174 Cl  0  0  0  0  0  0  0  0  0 16
    0.5600   -1.0027   -0.1334 C   0  0  0  0  0  0  0  0  0 17
   -0.4237   -1.5264    1.1995 Cl  0  0  0  0  0  0  0  0  0 18
 17 18  1  0  0  0
 17 10  4  0  0  0
 15 17  4  0  0  0
 15 16  1  0  0  0
 14 15  4  0  0  0
 13 14  4  0  0  0
 11 13  4  0  0  0
 11 12  1  0  0  0
 10 11  4  0  0  0
  8 10  1  0  0  0
  9  2  4  0  0  0
  8  9  4  0  0  0
  6  8  4  0  0  0
  6  7  1  0  0  0
  4  6  4  0  0  0
  4  5  1  0  0  0
  3  4  4  0  0  0
  2  3  4  0  0  0
  1  2  1  0  0  0
M  END