3,3',4,4',5-Pentachlorobiphenyl
  DSViewer          3D                             0

 17 18  0  0  0  0  0  0  0  0999 V2000
   -0.8494    5.5243    3.4763 Cl  0  0  0  0  0  0  0  0  0  1
   -0.4471    4.2281    2.4078 C   0  0  0  0  0  0  0  0  0  2
    0.4911    3.2769    2.7916 C   0  0  0  0  0  0  0  0  0  3
    0.8150    2.2337    1.9319 C   0  0  0  0  0  0  0  0  0  4
    0.2004    2.1421    0.6883 C   0  0  0  0  0  0  0  0  0  5
   -0.7380    3.0933    0.3043 C   0  0  0  0  0  0  0  0  0  6
   -1.0616    4.1363    1.1643 C   0  0  0  0  0  0  0  0  0  7
   -2.2273    5.3187    0.6883 Cl  0  0  0  0  0  0  0  0  0  8
    0.5406    1.0461   -0.2149 C   0  0  0  0  0  0  0  0  0  9
   -0.0737    0.9541   -1.4587 C   0  0  0  0  0  0  0  0  0 10
    0.2502   -0.0892   -2.3185 C   0  0  0  0  0  0  0  0  0 11
    1.1886   -1.0402   -1.9339 C   0  0  0  0  0  0  0  0  0 12
    1.8028   -0.9481   -0.6901 C   0  0  0  0  0  0  0  0  0 13
    1.4789    0.0951    0.1696 C   0  0  0  0  0  0  0  0  0 14
    2.9685   -2.1303   -0.2135 Cl  0  0  0  0  0  0  0  0  0 15
    1.5920   -2.3372   -3.0013 Cl  0  0  0  0  0  0  0  0  0 16
    1.2542    3.3917    4.3370 Cl  0  0  0  0  0  0  0  0  0 17
  3 17  1  0  0  0
 12 16  1  0  0  0
 13 15  1  0  0  0
 14  9  4  0  0  0
 13 14  4  0  0  0
 12 13  4  0  0  0
 11 12  4  0  0  0
 10 11  4  0  0  0
  9 10  4  0  0  0
  5  9  1  0  0  0
  7  8  1  0  0  0
  7  2  4  0  0  0
  6  7  4  0  0  0
  5  6  4  0  0  0
  4  5  4  0  0  0
  3  4  4  0  0  0
  2  3  4  0  0  0
  1  2  1  0  0  0
M  END