2,2',3,4,5,5'-Hexachlorobiphenyl
  DSViewer          3D                             0

 18 19  0  0  0  0  0  0  0  0999 V2000
   -2.3642    3.8326    3.2178 Cl  0  0  0  0  0  0  0  0  0  1
   -0.8947    3.3126    2.4745 C   0  0  0  0  0  0  0  0  0  2
    0.3152    3.8305    2.9130 C   0  0  0  0  0  0  0  0  0  3
    1.4924    3.4315    2.3000 C   0  0  0  0  0  0  0  0  0  4
    1.4484    2.5125    1.2601 C   0  0  0  0  0  0  0  0  0  5
    0.2459    1.9646    0.8207 C   0  0  0  0  0  0  0  0  0  6
   -0.9427    2.3872    1.4366 C   0  0  0  0  0  0  0  0  0  7
   -2.5176    1.8785    0.9508 Cl  0  0  0  0  0  0  0  0  0  8
    0.3748    0.9720   -0.3241 C   0  0  0  0  0  0  0  0  0  9
    1.4453    1.2058   -1.1842 C   0  0  0  0  0  0  0  0  0 10
    1.6942    0.3868   -2.2775 C   0  0  0  0  0  0  0  0  0 11
    0.8713   -0.7012   -2.5235 C   0  0  0  0  0  0  0  0  0 12
   -0.1844   -0.9629   -1.6620 C   0  0  0  0  0  0  0  0  0 13
   -0.4428   -0.1422   -0.5683 C   0  0  0  0  0  0  0  0  0 14
   -1.7379   -0.6342    0.4605 Cl  0  0  0  0  0  0  0  0  0 15
    3.0210    0.7247   -3.3310 Cl  0  0  0  0  0  0  0  0  0 16
    3.0056    4.0764    2.8271 Cl  0  0  0  0  0  0  0  0  0 17
    0.3519    4.9775    4.2040 Cl  0  0  0  0  0  0  0  0  0 18
  3 18  1  0  0  0
  4 17  1  0  0  0
 11 16  1  0  0  0
 14 15  1  0  0  0
 14  9  4  0  0  0
 13 14  4  0  0  0
 12 13  4  0  0  0
 11 12  4  0  0  0
 10 11  4  0  0  0
  9 10  4  0  0  0
  6  9  1  0  0  0
  7  8  1  0  0  0
  7  2  4  0  0  0
  6  7  4  0  0  0
  5  6  4  0  0  0
  4  5  4  0  0  0
  3  4  4  0  0  0
  2  3  4  0  0  0
  1  2  1  0  0  0
M  END