2,2',3,4,4',5',6-Heptachlorobiphenyl
  DSViewer          3D                             0

 19 20  0  0  0  0  0  0  0  0999 V2000
    1.4386    0.4100    3.0070 Cl  0  0  0  0  0  0  0  0  0  1
    0.2612    1.6226    2.6222 C   0  0  0  0  0  0  0  0  0  2
   -0.0673    1.9678    1.3031 C   0  0  0  0  0  0  0  0  0  3
   -0.9850    3.0074    1.0975 C   0  0  0  0  0  0  0  0  0  4
   -1.5680    3.6596    2.1775 C   0  0  0  0  0  0  0  0  0  5
   -1.2428    3.3012    3.4758 C   0  0  0  0  0  0  0  0  0  6
   -0.3249    2.2863    3.6934 C   0  0  0  0  0  0  0  0  0  7
    0.1030    1.8497    5.3087 Cl  0  0  0  0  0  0  0  0  0  8
   -1.9660    4.1213    4.8131 Cl  0  0  0  0  0  0  0  0  0  9
   -1.4780    3.5142   -0.4897 Cl  0  0  0  0  0  0  0  0  0 10
    0.5639    1.2621    0.1005 C   0  0  0  0  0  0  0  0  0 11
    1.0116    2.0432   -0.9627 C   0  0  0  0  0  0  0  0  0 12
    1.5995    1.4749   -2.0850 C   0  0  0  0  0  0  0  0  0 13
    1.7444    0.0982   -2.1630 C   0  0  0  0  0  0  0  0  0 14
    1.2909   -0.6971   -1.1201 C   0  0  0  0  0  0  0  0  0 15
    0.7052   -0.1291    0.0067 C   0  0  0  0  0  0  0  0  0 16
    0.1111   -1.2142    1.2221 Cl  0  0  0  0  0  0  0  0  0 17
    2.4735   -0.6219   -3.5537 Cl  0  0  0  0  0  0  0  0  0 18
    2.1492    2.4789   -3.3785 Cl  0  0  0  0  0  0  0  0  0 19
 13 19  1  0  0  0
 14 18  1  0  0  0
 16 17  1  0  0  0
 16 11  4  0  0  0
 15 16  4  0  0  0
 14 15  4  0  0  0
 13 14  4  0  0  0
 12 13  4  0  0  0
 11 12  4  0  0  0
  3 11  1  0  0  0
  4 10  1  0  0  0
  6  9  1  0  0  0
  7  8  1  0  0  0
  7  2  4  0  0  0
  6  7  4  0  0  0
  5  6  4  0  0  0
  4  5  4  0  0  0
  3  4  4  0  0  0
  2  3  4  0  0  0
  1  2  1  0  0  0
M  END