2,2',3,4,4',5-Hexachlorobiphenyl
  DSViewer          3D                             0

 18 19  0  0  0  0  0  0  0  0999 V2000
   -3.7075    4.3935    2.7601 Cl  0  0  0  0  0  0  0  0  0  1
   -2.5910    3.2654    2.0775 C   0  0  0  0  0  0  0  0  0  2
   -1.4991    2.8310    2.8095 C   0  0  0  0  0  0  0  0  0  3
   -0.6145    1.9242    2.2420 C   0  0  0  0  0  0  0  0  0  4
   -0.7770    1.4239    0.9523 C   0  0  0  0  0  0  0  0  0  5
   -1.8920    1.8754    0.2211 C   0  0  0  0  0  0  0  0  0  6
   -2.2734    1.3750   -1.4018 Cl  0  0  0  0  0  0  0  0  0  7
   -2.7786    2.7849    0.7906 C   0  0  0  0  0  0  0  0  0  8
    0.2700    0.4030    0.3941 C   0  0  0  0  0  0  0  0  0  9
    0.0966   -0.1109   -0.8884 C   0  0  0  0  0  0  0  0  0 10
    0.9801   -1.0202   -1.4522 C   0  0  0  0  0  0  0  0  0 11
    0.7084   -1.6210   -3.0486 Cl  0  0  0  0  0  0  0  0  0 12
    2.0806   -1.4428   -0.7269 C   0  0  0  0  0  0  0  0  0 13
    3.1934   -2.5741   -1.4091 Cl  0  0  0  0  0  0  0  0  0 14
    2.2806   -0.9488    0.5531 C   0  0  0  0  0  0  0  0  0 15
    3.6529   -1.4735    1.4611 Cl  0  0  0  0  0  0  0  0  0 16
    1.3939   -0.0368    1.1188 C   0  0  0  0  0  0  0  0  0 17
    1.7894    0.4842    2.7314 Cl  0  0  0  0  0  0  0  0  0 18
 17 18  1  0  0  0
 17  9  4  0  0  0
 15 17  4  0  0  0
 15 16  1  0  0  0
 13 15  4  0  0  0
 13 14  1  0  0  0
 11 13  4  0  0  0
 11 12  1  0  0  0
 10 11  4  0  0  0
  9 10  4  0  0  0
  5  9  1  0  0  0
  8  2  4  0  0  0
  6  8  4  0  0  0
  6  7  1  0  0  0
  5  6  4  0  0  0
  4  5  4  0  0  0
  3  4  4  0  0  0
  2  3  4  0  0  0
  1  2  1  0  0  0
M  END