3,3',4,4',5,5'-Hexachlorobiphenyl
  SciTegic12150910513D

 18 19  0  0  0  0            999 V2000
   -0.2757    5.2986    2.7511 Cl  0  0  0  0  0  0  0  0  0  1  0  0
   -0.8160    3.9647    1.7960 C   0  0  0  0  0  0  0  0  0  2  0  0
    0.0509    2.9157    1.5128 C   0  0  0  0  0  0  0  0  0  3  0  0
   -0.3849    1.8425    0.7442 C   0  0  0  0  0  0  0  0  0  4  0  0
   -1.6875    1.8179    0.2587 C   0  0  0  0  0  0  0  0  0  5  0  0
   -2.5541    2.8672    0.5420 C   0  0  0  0  0  0  0  0  0  6  0  0
   -4.1725    2.8380   -0.0609 Cl  0  0  0  0  0  0  0  0  0  7  0  0
   -2.1184    3.9404    1.3106 C   0  0  0  0  0  0  0  0  0  8  0  0
   -3.1955    5.2441    1.6625 Cl  0  0  0  0  0  0  0  0  0  9  0  0
    0.5255    0.7404    0.4467 C   0  0  0  0  0  0  0  0  0 10  0  0
    0.0886   -0.3344   -0.3190 C   0  0  0  0  0  0  0  0  0 11  0  0
    0.9555   -1.3835   -0.6021 C   0  0  0  0  0  0  0  0  0 12  0  0
    0.4137   -2.7197   -1.5531 Cl  0  0  0  0  0  0  0  0  0 13  0  0
    2.2590   -1.3575   -0.1196 C   0  0  0  0  0  0  0  0  0 14  0  0
    3.3361   -2.6612   -0.4716 Cl  0  0  0  0  0  0  0  0  0 15  0  0
    2.6958   -0.2826    0.6459 C   0  0  0  0  0  0  0  0  0 16  0  0
    4.3156   -0.2511    1.2448 Cl  0  0  0  0  0  0  0  0  0 17  0  0
    1.8291    0.7666    0.9294 C   0  0  0  0  0  0  0  0  0 18  0  0
 18 10  4  0
 16 18  4  0
 16 17  1  0
 14 16  4  0
 14 15  1  0
 12 14  4  0
 12 13  1  0
 11 12  4  0
 10 11  4  0
  4 10  1  0
  8  9  1  0
  8  2  4  0
  6  8  4  0
  6  7  1  0
  5  6  4  0
  4  5  4  0
  3  4  4  0
  2  3  4  0
  1  2  1  0
M  END