2,2',5,5'-Tetrabromobiphenyl
  SciTegic12150910513D

 16 17  0  0  0  0            999 V2000
    1.7807    0.4292    2.6874 Br  0  0  0  0  0  0  0  0  0  1  0  0
    0.2150    1.5065    2.5059 C   0  0  0  0  0  0  0  0  0  2  0  0
   -0.3453    1.7685    1.2532 C   0  0  0  0  0  0  0  0  0  3  0  0
   -1.4750    2.5864    1.1712 C   0  0  0  0  0  0  0  0  0  4  0  0
   -2.0326    3.1279    2.3236 C   0  0  0  0  0  0  0  0  0  5  0  0
   -1.4699    2.8660    3.5651 C   0  0  0  0  0  0  0  0  0  6  0  0
   -0.3459    2.0563    3.6527 C   0  0  0  0  0  0  0  0  0  7  0  0
   -2.3150    2.9541   -0.5034 Br  0  0  0  0  0  0  0  0  0  8  0  0
    0.2577    1.1797    0.0131 C   0  0  0  0  0  0  0  0  0  9  0  0
    0.8021    2.0082   -0.9713 C   0  0  0  0  0  0  0  0  0 10  0  0
    1.3627    1.4581   -2.1181 C   0  0  0  0  0  0  0  0  0 11  0  0
    1.3821    0.0820   -2.2988 C   0  0  0  0  0  0  0  0  0 12  0  0
    0.8403   -0.7462   -1.3256 C   0  0  0  0  0  0  0  0  0 13  0  0
    0.2826   -0.2047   -0.1733 C   0  0  0  0  0  0  0  0  0 14  0  0
   -0.4783   -1.3933    1.1125 Br  0  0  0  0  0  0  0  0  0 15  0  0
    0.8370    3.9058   -0.7638 Br  0  0  0  0  0  0  0  0  0 16  0  0
 10 16  1  0
 14 15  1  0
 14  9  4  0
 13 14  4  0
 12 13  4  0
 11 12  4  0
 10 11  4  0
  9 10  4  0
  3  9  1  0
  4  8  1  0
  7  2  4  0
  6  7  4  0
  5  6  4  0
  4  5  4  0
  3  4  4  0
  2  3  4  0
  1  2  1  0
M  END