1,2,4-Trichlorodibenzo-p-dioxin
  SciTegic12150910513D

 17 19  0  0  0  0            999 V2000
   -2.8438    1.5783   -0.2594 Cl  0  0  0  0  0  0  0  0  0  1  0  0
   -1.1404    1.4515   -0.0014 C   0  0  0  0  0  0  0  0  0  2  0  0
   -0.4437    2.5076    0.5750 C   0  0  0  0  0  0  0  0  0  3  0  0
    0.9272    2.4047    0.7822 C   0  0  0  0  0  0  0  0  0  4  0  0
    1.7949    3.7152    1.4979 Cl  0  0  0  0  0  0  0  0  0  5  0  0
    1.6005    1.2463    0.4132 C   0  0  0  0  0  0  0  0  0  6  0  0
    2.9397    1.1458    0.6156 O   0  0  0  0  0  0  0  0  0  7  0  0
    3.5987    0.0139    0.2553 C   0  0  0  0  0  0  0  0  0  8  0  0
    4.9693   -0.0883    0.4628 C   0  0  0  0  0  0  0  0  0  9  0  0
    5.6428   -1.2473    0.0936 C   0  0  0  0  0  0  0  0  0 10  0  0
    4.9457   -2.3033   -0.4828 C   0  0  0  0  0  0  0  0  0 11  0  0
    3.5748   -2.2012   -0.6904 C   0  0  0  0  0  0  0  0  0 12  0  0
    2.9015   -1.0424   -0.3212 C   0  0  0  0  0  0  0  0  0 13  0  0
    1.5620   -0.9415   -0.5236 O   0  0  0  0  0  0  0  0  0 14  0  0
    0.9036    0.1903   -0.1632 C   0  0  0  0  0  0  0  0  0 15  0  0
   -0.4667    0.2929   -0.3704 C   0  0  0  0  0  0  0  0  0 16  0  0
   -1.3314   -1.0193   -1.0863 Cl  0  0  0  0  0  0  0  0  0 17  0  0
 16 17  1  0
 16  2  4  0
 15 16  4  0
 15  6  4  0
 14 15  1  0
 13 14  1  0
 13  8  4  0
 12 13  4  0
 11 12  4  0
 10 11  4  0
  9 10  4  0
  8  9  4  0
  7  8  1  0
  6  7  1  0
  4  6  4  0
  4  5  1  0
  3  4  4  0
  2  3  4  0
  1  2  1  0
M  END