1,2,3,7-Tetrachlorodibenzo-p-dioxin
  DSViewer          3D                             0

 18 20  0  0  0  0  0  0  0  0999 V2000
   -2.6990    1.5123    0.3934 Cl  0  0  0  0  0  0  0  0  0  1
   -1.0198    1.3254    0.0343 C   0  0  0  0  0  0  0  0  0  2
   -0.3666    2.2719   -0.7468 C   0  0  0  0  0  0  0  0  0  3
   -1.2353    3.6343   -1.3577 Cl  0  0  0  0  0  0  0  0  0  4
    0.9849    2.1222   -1.0363 C   0  0  0  0  0  0  0  0  0  5
    1.6826    1.0253   -0.5440 C   0  0  0  0  0  0  0  0  0  6
    3.0034    0.8773   -0.8257 O   0  0  0  0  0  0  0  0  0  7
    3.6857   -0.1950   -0.3445 C   0  0  0  0  0  0  0  0  0  8
    5.0371   -0.3456   -0.6332 C   0  0  0  0  0  0  0  0  0  9
    5.7340   -1.4429   -0.1403 C   0  0  0  0  0  0  0  0  0 10
    5.0796   -2.3889    0.6409 C   0  0  0  0  0  0  0  0  0 11
    5.9466   -3.7523    1.2531 Cl  0  0  0  0  0  0  0  0  0 12
    3.7280   -2.2383    0.9297 C   0  0  0  0  0  0  0  0  0 13
    3.0313   -1.1412    0.4368 C   0  0  0  0  0  0  0  0  0 14
    1.7108   -0.9930    0.7183 O   0  0  0  0  0  0  0  0  0 15
    1.0290    0.0787    0.2373 C   0  0  0  0  0  0  0  0  0 16
   -0.3219    0.2287    0.5264 C   0  0  0  0  0  0  0  0  0 17
   -1.1324   -0.9475    1.4968 Cl  0  0  0  0  0  0  0  0  0 18
 17 18  1  0  0  0
 17  2  4  0  0  0
 16 17  4  0  0  0
 16  6  4  0  0  0
 15 16  1  0  0  0
 14 15  1  0  0  0
 14  8  4  0  0  0
 13 14  4  0  0  0
 11 13  4  0  0  0
 11 12  1  0  0  0
 10 11  4  0  0  0
  9 10  4  0  0  0
  8  9  4  0  0  0
  7  8  1  0  0  0
  6  7  1  0  0  0
  5  6  4  0  0  0
  3  5  4  0  0  0
  3  4  1  0  0  0
  2  3  4  0  0  0
  1  2  1  0  0  0
M  END