1,3,6,8-Tetrachlorodibenzo-p-dioxin
  SciTegic12150910513D

 18 20  0  0  0  0            999 V2000
   -1.0229    1.5998    0.1675 C   0  0  0  0  0  0  0  0  0  1  0  0
   -0.4075    2.1418   -0.9554 C   0  0  0  0  0  0  0  0  0  2  0  0
   -1.1299    3.4808   -1.7738 Cl  0  0  0  0  0  0  0  0  0  3  0  0
    0.7887    1.6068   -1.4199 C   0  0  0  0  0  0  0  0  0  4  0  0
    1.3695    0.5295   -0.7610 C   0  0  0  0  0  0  0  0  0  5  0  0
    2.5386    0.0052   -1.2134 O   0  0  0  0  0  0  0  0  0  6  0  0
    3.1057   -1.0480   -0.5688 C   0  0  0  0  0  0  0  0  0  7  0  0
    4.3016   -1.5848   -1.0310 C   0  0  0  0  0  0  0  0  0  8  0  0
    4.8802   -2.6625   -0.3699 C   0  0  0  0  0  0  0  0  0  9  0  0
    6.3666   -3.3303   -0.9438 Cl  0  0  0  0  0  0  0  0  0 10  0  0
    4.2633   -3.2031    0.7528 C   0  0  0  0  0  0  0  0  0 11  0  0
    3.0672   -2.6658    1.2147 C   0  0  0  0  0  0  0  0  0 12  0  0
    2.2986   -3.3352    2.6089 Cl  0  0  0  0  0  0  0  0  0 13  0  0
    2.4888   -1.5887    0.5540 C   0  0  0  0  0  0  0  0  0 14  0  0
    1.3208   -1.0647    1.0057 O   0  0  0  0  0  0  0  0  0 15  0  0
    0.7540   -0.0125    0.3619 C   0  0  0  0  0  0  0  0  0 16  0  0
   -0.4417    0.5223    0.8262 C   0  0  0  0  0  0  0  0  0 17  0  0
   -1.2037   -0.1531    2.2211 Cl  0  0  0  0  0  0  0  0  0 18  0  0
 17 18  1  0
 17  1  4  0
 16 17  4  0
 16  5  4  0
 15 16  1  0
 14 15  1  0
 14  7  4  0
 12 14  4  0
 12 13  1  0
 11 12  4  0
  9 11  4  0
  9 10  1  0
  8  9  4  0
  7  8  4  0
  6  7  1  0
  5  6  1  0
  4  5  4  0
  2  4  4  0
  2  3  1  0
  1  2  4  0
M  END