2,3,7,8-Tetrachlorodibenzo-p-dioxin
  SciTegic12150910513D

 18 20  0  0  0  0            999 V2000
   -2.8109    0.6178   -1.1984 Cl  0  0  0  0  0  0  0  0  0  1  0  0
   -1.1970    0.6729   -0.5846 C   0  0  0  0  0  0  0  0  0  2  0  0
   -0.3643    1.7367   -0.9125 C   0  0  0  0  0  0  0  0  0  3  0  0
    0.9339    1.7795   -0.4176 C   0  0  0  0  0  0  0  0  0  4  0  0
    1.7488    2.8187   -0.7372 O   0  0  0  0  0  0  0  0  0  5  0  0
    3.0178    2.8622   -0.2534 C   0  0  0  0  0  0  0  0  0  6  0  0
    3.8501    3.9264   -0.5803 C   0  0  0  0  0  0  0  0  0  7  0  0
    5.1481    3.9696   -0.0844 C   0  0  0  0  0  0  0  0  0  8  0  0
    6.1842    5.2914   -0.4894 Cl  0  0  0  0  0  0  0  0  0  9  0  0
    5.6133    2.9495    0.7377 C   0  0  0  0  0  0  0  0  0 10  0  0
    7.2267    3.0054    1.3528 Cl  0  0  0  0  0  0  0  0  0 11  0  0
    4.7810    1.8852    1.0647 C   0  0  0  0  0  0  0  0  0 12  0  0
    3.4832    1.8418    0.5690 C   0  0  0  0  0  0  0  0  0 13  0  0
    2.6685    0.8022    0.8879 O   0  0  0  0  0  0  0  0  0 14  0  0
    1.3992    0.7591    0.4047 C   0  0  0  0  0  0  0  0  0 15  0  0
    0.5666   -0.3045    0.7325 C   0  0  0  0  0  0  0  0  0 16  0  0
   -0.7318   -0.3472    0.2375 C   0  0  0  0  0  0  0  0  0 17  0  0
   -1.7684   -1.6681    0.6438 Cl  0  0  0  0  0  0  0  0  0 18  0  0
 17 18  1  0
 17  2  4  0
 16 17  4  0
 15 16  4  0
 15  4  4  0
 14 15  1  0
 13 14  1  0
 13  6  4  0
 12 13  4  0
 10 12  4  0
 10 11  1  0
  8 10  4  0
  8  9  1  0
  7  8  4  0
  6  7  4  0
  5  6  1  0
  4  5  1  0
  3  4  4  0
  2  3  4  0
  1  2  1  0
M  END