1,2,3,7,8-Pentachlorodibenzo-p-dioxin
  DSViewer          3D                             0

 19 21  0  0  0  0  0  0  0  0999 V2000
   -1.6109   -0.2756    2.7712 Cl  0  0  0  0  0  0  0  0  0  1
   -0.5782   -0.7581    1.4740 C   0  0  0  0  0  0  0  0  0  2
   -0.3613    0.1393    0.3405 C   0  0  0  0  0  0  0  0  0  3
    0.4353   -0.2317   -0.6611 C   0  0  0  0  0  0  0  0  0  4
    0.6356    0.6043   -1.7141 O   0  0  0  0  0  0  0  0  0  5
    0.0240    1.8181   -1.7461 C   0  0  0  0  0  0  0  0  0  6
    0.2407    2.7171   -2.8802 C   0  0  0  0  0  0  0  0  0  7
   -0.3590    3.9059   -2.9100 C   0  0  0  0  0  0  0  0  0  8
   -0.1047    4.9687   -4.2478 Cl  0  0  0  0  0  0  0  0  0  9
   -0.7727    2.1886   -0.7439 C   0  0  0  0  0  0  0  0  0 10
   -1.4317    3.4946   -0.7764 C   0  0  0  0  0  0  0  0  0 11
   -1.2346    4.3129   -1.8085 C   0  0  0  0  0  0  0  0  0 12
   -2.0117    5.8553   -1.8489 Cl  0  0  0  0  0  0  0  0  0 13
   -0.9727    1.3525    0.3086 O   0  0  0  0  0  0  0  0  0 14
    0.0207   -1.9469    1.5057 C   0  0  0  0  0  0  0  0  0 15
    0.8964   -2.3555    0.4053 C   0  0  0  0  0  0  0  0  0 16
    1.6728   -3.8980    0.4476 Cl  0  0  0  0  0  0  0  0  0 17
    1.0941   -1.5381   -0.6275 C   0  0  0  0  0  0  0  0  0 18
   -0.2354   -3.0072    2.8449 Cl  0  0  0  0  0  0  0  0  0 19
 15 19  1  0  0  0
 18  4  4  0  0  0
 16 18  4  0  0  0
 16 17  1  0  0  0
 15 16  4  0  0  0
  2 15  4  0  0  0
 14  3  1  0  0  0
 10 14  1  0  0  0
 12 13  1  0  0  0
 12  8  4  0  0  0
 11 12  4  0  0  0
 10 11  4  0  0  0
  6 10  4  0  0  0
  8  9  1  0  0  0
  7  8  4  0  0  0
  6  7  4  0  0  0
  5  6  1  0  0  0
  4  5  1  0  0  0
  3  4  4  0  0  0
  2  3  4  0  0  0
  1  2  1  0  0  0
M  END