Benzo[b]furan
  DSViewer          3D                             0

  9 10  0  0  0  0  0  0  0  0999 V2000
   -0.9748    1.0772   -0.0002 C   0  0  0  0  0  0  0  0  0  1
   -0.1435    2.2025    0.0001 C   0  0  0  0  0  0  0  0  0  2
    1.2448    2.0695   -0.0001 C   0  0  0  0  0  0  0  0  0  3
    1.7463    0.7781   -0.0005 C   0  0  0  0  0  0  0  0  0  4
    3.0522    0.3341   -0.0008 C   0  0  0  0  0  0  0  0  0  5
    2.9202   -1.0573   -0.0012 C   0  0  0  0  0  0  0  0  0  6
    1.6605   -1.3978   -0.0012 O   0  0  0  0  0  0  0  0  0  7
    0.9383   -0.3264   -0.0008 C   0  0  0  0  0  0  0  0  0  8
   -0.4431   -0.2127   -0.0006 C   0  0  0  0  0  0  0  0  0  9
  9  1  4  0  0  0
  8  9  4  0  0  0
  8  4  4  0  0  0
  7  8  4  0  0  0
  6  7  4  0  0  0
  5  6  4  0  0  0
  4  5  4  0  0  0
  3  4  4  0  0  0
  2  3  4  0  0  0
  1  2  4  0  0  0
M  END