4-Cyanophenol
  SciTegic12150910513D

  9  9  0  0  0  0            999 V2000
    2.0584   -1.0273   -0.0561 C   0  0  0  0  0  0  0  0  0  1  0  0
    2.8203   -1.8569   -0.2923 N   0  0  0  0  0  0  0  0  0  2  0  0
    1.1165   -0.0018    0.2358 C   0  0  0  0  0  0  0  0  0  3  0  0
    1.4779    1.0599    1.0576 C   0  0  0  0  0  0  0  0  0  4  0  0
    0.5574    2.0619    1.3430 C   0  0  0  0  0  0  0  0  0  5  0  0
   -0.7240    2.0018    0.8067 C   0  0  0  0  0  0  0  0  0  6  0  0
   -1.6448    3.0041    1.0923 O   0  0  0  0  0  0  0  0  0  7  0  0
   -1.0852    0.9400   -0.0151 C   0  0  0  0  0  0  0  0  0  8  0  0
   -0.1647   -0.0620   -0.3006 C   0  0  0  0  0  0  0  0  0  9  0  0
  9  8  4  0
  3  9  4  0
  6  8  4  0
  6  7  1  0
  5  6  4  0
  4  5  4  0
  3  4  4  0
  1  3  1  0
  1  2  3  0
M  END