3-Chlorophenol
  DSViewer          3D                             0

  8  8  0  0  0  0  0  0  0  0999 V2000
    2.1103   -0.4523    0.6424 O   0  0  0  0  0  0  0  0  0  1
    1.0696    0.4568    0.4856 C   0  0  0  0  0  0  0  0  0  2
    1.1363    1.7024    1.0997 C   0  0  0  0  0  0  0  0  0  3
    0.0959    2.6114    0.9429 C   0  0  0  0  0  0  0  0  0  4
   -1.0111    2.2745    0.1720 C   0  0  0  0  0  0  0  0  0  5
   -1.0776    1.0288   -0.4420 C   0  0  0  0  0  0  0  0  0  6
   -2.4533    0.6103   -1.3999 Cl  0  0  0  0  0  0  0  0  0  7
   -0.0373    0.1198   -0.2853 C   0  0  0  0  0  0  0  0  0  8
  8  6  4  0  0  0
  2  8  4  0  0  0
  6  7  1  0  0  0
  5  6  4  0  0  0
  4  5  4  0  0  0
  3  4  4  0  0  0
  2  3  4  0  0  0
  1  2  1  0  0  0
M  END