2,4-Dichlorophenol
  DSViewer          3D                             0

  9  9  0  0  0  0  0  0  0  0999 V2000
    2.5178    0.6060    0.6499 O   0  0  0  0  0  0  0  0  0  1
    1.1681    0.8751    0.4512 C   0  0  0  0  0  0  0  0  0  2
    0.5937    2.0047    1.0229 C   0  0  0  0  0  0  0  0  0  3
   -0.7557    2.2746    0.8248 C   0  0  0  0  0  0  0  0  0  4
   -1.5303    1.4144    0.0548 C   0  0  0  0  0  0  0  0  0  5
   -0.9560    0.2846   -0.5170 C   0  0  0  0  0  0  0  0  0  6
   -3.2073    1.7495   -0.1916 Cl  0  0  0  0  0  0  0  0  0  7
    1.5573    3.0727    1.9795 Cl  0  0  0  0  0  0  0  0  0  8
    0.3934    0.0148   -0.3188 C   0  0  0  0  0  0  0  0  0  9
  9  6  4  0  0  0
  2  9  4  0  0  0
  3  8  1  0  0  0
  5  7  1  0  0  0
  5  6  4  0  0  0
  4  5  4  0  0  0
  3  4  4  0  0  0
  2  3  4  0  0  0
  1  2  1  0  0  0
M  END