p-sec-Butyl phenol
  SciTegic12150910513D

 11 11  0  0  0  0            999 V2000
    2.4807   -0.3026   -1.5560 O   0  0  0  0  0  0  0  0  0  1  0  0
    1.5359    0.2518   -0.6992 C   0  0  0  0  0  0  0  0  0  2  0  0
    1.5589    1.6133   -0.4237 C   0  0  0  0  0  0  0  0  0  3  0  0
    0.6131    2.1644    0.4329 C   0  0  0  0  0  0  0  0  0  4  0  0
   -0.3648    1.3662    1.0216 C   0  0  0  0  0  0  0  0  0  5  0  0
   -0.3769    0.0031    0.7404 C   0  0  0  0  0  0  0  0  0  6  0  0
   -1.4403    1.9211    1.9874 C   0  0  0  0  0  0  0  0  0  7  0  0
   -1.1699    3.3082    2.6813 C   0  0  0  0  0  0  0  0  0  8  0  0
   -1.1368    4.5154    1.7024 C   0  0  0  0  0  0  0  0  0  9  0  0
   -1.8006    0.8335    3.0188 C   0  0  0  0  0  0  0  0  0 10  0  0
    0.5664   -0.5540   -0.1157 C   0  0  0  0  0  0  0  0  0 11  0  0
 11  6  4  0
  2 11  4  0
  7 10  1  0
  8  9  1  0
  7  8  1  0
  5  7  1  0
  5  6  4  0
  4  5  4  0
  3  4  4  0
  2  3  4  0
  1  2  1  0
M  END