4,6-Dichloroguaiacol
  SciTegic12150910513D

 11 11  0  0  0  0            999 V2000
    2.1920   -0.1832   -0.4259 O   0  0  0  0  0  0  0  0  0  1  0  0
    1.1235    0.5305    0.1047 C   0  0  0  0  0  0  0  0  0  2  0  0
    1.3373    1.7843    0.6658 C   0  0  0  0  0  0  0  0  0  3  0  0
    2.9297    2.4528    0.7025 Cl  0  0  0  0  0  0  0  0  0  4  0  0
    0.2706    2.4999    1.1971 C   0  0  0  0  0  0  0  0  0  5  0  0
   -1.0101    1.9603    1.1667 C   0  0  0  0  0  0  0  0  0  6  0  0
   -2.3373    2.8477    1.8263 Cl  0  0  0  0  0  0  0  0  0  7  0  0
   -1.2231    0.7063    0.6053 C   0  0  0  0  0  0  0  0  0  8  0  0
   -0.1562   -0.0118    0.0729 C   0  0  0  0  0  0  0  0  0  9  0  0
   -0.3522   -1.2803   -0.4984 O   0  0  0  0  0  0  0  0  0 10  0  0
   -1.7318   -1.6719   -0.4405 C   0  0  0  0  0  0  0  0  0 11  0  0
 10 11  1  0
  9 10  1  0
  9  8  4  0
  2  9  4  0
  6  8  4  0
  6  7  1  0
  5  6  4  0
  3  5  4  0
  3  4  1  0
  2  3  4  0
  1  2  1  0
M  END