4,5-Dichloroguaiacol
  SciTegic12150910513D

 11 11  0  0  0  0            999 V2000
   -0.8969    2.0925   -2.3571 C   0  0  0  0  0  0  0  0  0  1  0  0
   -1.1156    1.0328   -1.4140 O   0  0  0  0  0  0  0  0  0  2  0  0
    0.0056    0.8429   -0.5889 C   0  0  0  0  0  0  0  0  0  3  0  0
    1.1445    1.6295   -0.7367 C   0  0  0  0  0  0  0  0  0  4  0  0
    2.2444    1.4270    0.0891 C   0  0  0  0  0  0  0  0  0  5  0  0
    3.6562    2.4048   -0.0969 Cl  0  0  0  0  0  0  0  0  0  6  0  0
    2.2083    0.4376    1.0646 C   0  0  0  0  0  0  0  0  0  7  0  0
    3.5753    0.1862    2.0906 Cl  0  0  0  0  0  0  0  0  0  8  0  0
    1.0721   -0.3491    1.2140 C   0  0  0  0  0  0  0  0  0  9  0  0
   -0.0274   -0.1460    0.3879 C   0  0  0  0  0  0  0  0  0 10  0  0
   -1.1634   -0.9333    0.5381 O   0  0  0  0  0  0  0  0  0 11  0  0
 10 11  1  0
 10  3  4  0
  9 10  4  0
  7  9  4  0
  7  8  1  0
  5  7  4  0
  5  6  1  0
  4  5  4  0
  3  4  4  0
  2  3  1  0
  1  2  1  0
M  END