2,4,6-Tribromophenol
  SciTegic12150910513D

 10 10  0  0  0  0            999 V2000
    2.2953    0.4098    0.6795 O   0  0  0  0  0  0  0  0  0  1  0  0
    0.9765    0.8214    0.5227 C   0  0  0  0  0  0  0  0  0  2  0  0
    0.5799    2.0726    0.9806 C   0  0  0  0  0  0  0  0  0  3  0  0
   -0.7387    2.4844    0.8240 C   0  0  0  0  0  0  0  0  0  4  0  0
   -1.6605    1.6444    0.2092 C   0  0  0  0  0  0  0  0  0  5  0  0
   -1.2639    0.3930   -0.2488 C   0  0  0  0  0  0  0  0  0  6  0  0
   -3.4632    2.2070   -0.0052 Br  0  0  0  0  0  0  0  0  0  7  0  0
    1.8408    3.2196    1.8207 Br  0  0  0  0  0  0  0  0  0  8  0  0
    0.0548   -0.0184   -0.0919 C   0  0  0  0  0  0  0  0  0  9  0  0
    0.5983   -1.7285   -0.7174 Br  0  0  0  0  0  0  0  0  0 10  0  0
  9 10  1  0
  9  6  4  0
  2  9  4  0
  3  8  1  0
  5  7  1  0
  5  6  4  0
  4  5  4  0
  3  4  4  0
  2  3  4  0
  1  2  1  0
M  END