Diphenylamine
  SciTegic12150910513D

 13 14  0  0  0  0            999 V2000
    1.7466   -0.5030    0.5391 N   0  0  0  0  0  0  0  0  0  1  0  0
    3.1513   -0.2142    0.3728 C   0  0  0  0  0  0  0  0  0  2  0  0
    4.0581   -1.2124    0.7172 C   0  0  0  0  0  0  0  0  0  3  0  0
    5.4259   -1.0090    0.5760 C   0  0  0  0  0  0  0  0  0  4  0  0
    5.9025    0.1995    0.0828 C   0  0  0  0  0  0  0  0  0  5  0  0
    5.0063    1.2009   -0.2686 C   0  0  0  0  0  0  0  0  0  6  0  0
    3.6393    0.9918   -0.1243 C   0  0  0  0  0  0  0  0  0  7  0  0
    0.6179    0.3891    0.4198 C   0  0  0  0  0  0  0  0  0  8  0  0
    0.7344    1.7710    0.2913 C   0  0  0  0  0  0  0  0  0  9  0  0
   -0.3960    2.5742    0.1909 C   0  0  0  0  0  0  0  0  0 10  0  0
   -1.6604    1.9998    0.2202 C   0  0  0  0  0  0  0  0  0 11  0  0
   -1.7880    0.6224    0.3521 C   0  0  0  0  0  0  0  0  0 12  0  0
   -0.6540   -0.1752    0.4530 C   0  0  0  0  0  0  0  0  0 13  0  0
 13 12  4  0
  8 13  4  0
 11 12  4  0
 10 11  4  0
  9 10  4  0
  8  9  4  0
  1  8  1  0
  7  6  4  0
  2  7  4  0
  5  6  4  0
  4  5  4  0
  3  4  4  0
  2  3  4  0
  1  2  1  0
M  END