2,4-Dichloroaniline
  DSViewer          3D                             0

  9  9  0  0  0  0  0  0  0  0999 V2000
    2.5232    0.6070    0.6482 N   0  0  0  0  0  0  0  0  0  1
    1.1682    0.8757    0.4497 C   0  0  0  0  0  0  0  0  0  2
    0.5933    2.0054    1.0207 C   0  0  0  0  0  0  0  0  0  3
   -0.7565    2.2739    0.8235 C   0  0  0  0  0  0  0  0  0  4
   -1.5310    1.4122    0.0551 C   0  0  0  0  0  0  0  0  0  5
   -0.9562    0.2823   -0.5160 C   0  0  0  0  0  0  0  0  0  6
   -3.2085    1.7456   -0.1902 Cl  0  0  0  0  0  0  0  0  0  7
    1.5569    3.0753    1.9752 Cl  0  0  0  0  0  0  0  0  0  8
    0.3936    0.0139   -0.3188 C   0  0  0  0  0  0  0  0  0  9
  9  6  4  0  0  0
  2  9  4  0  0  0
  3  8  1  0  0  0
  5  7  1  0  0  0
  5  6  4  0  0  0
  4  5  4  0  0  0
  3  4  4  0  0  0
  2  3  4  0  0  0
  1  2  1  0  0  0
M  END