2,3,4-Trichloroaniline
  DSViewer          3D                             0

 10 10  0  0  0  0  0  0  0  0999 V2000
   -1.7799    0.0752   -1.1708 N   0  0  0  0  0  0  0  0  0  1
   -0.4757   -0.2517   -0.7971 C   0  0  0  0  0  0  0  0  0  2
    0.3610   -0.9074   -1.6933 C   0  0  0  0  0  0  0  0  0  3
    1.6602   -1.2328   -1.3203 C   0  0  0  0  0  0  0  0  0  4
    2.1224   -0.9023   -0.0513 C   0  0  0  0  0  0  0  0  0  5
    3.7365   -1.3061    0.4131 Cl  0  0  0  0  0  0  0  0  0  6
    1.2856   -0.2466    0.8445 C   0  0  0  0  0  0  0  0  0  7
    1.8600    0.1638    2.4209 Cl  0  0  0  0  0  0  0  0  0  8
   -0.0134    0.0787    0.4716 C   0  0  0  0  0  0  0  0  0  9
   -1.0530    0.8933    1.5848 Cl  0  0  0  0  0  0  0  0  0 10
  9 10  1  0  0  0
  9  2  4  0  0  0
  7  9  4  0  0  0
  7  8  1  0  0  0
  5  7  4  0  0  0
  5  6  1  0  0  0
  4  5  4  0  0  0
  3  4  4  0  0  0
  2  3  4  0  0  0
  1  2  1  0  0  0
M  END