2,4,5-Trichloroaniline
  DSViewer          3D                             0

 10 10  0  0  0  0  0  0  0  0999 V2000
    2.5831    0.8592    0.2032 N   0  0  0  0  0  0  0  0  0  1
    1.2060    1.0725    0.2759 C   0  0  0  0  0  0  0  0  0  2
    0.7017    2.0840    1.0854 C   0  0  0  0  0  0  0  0  0  3
   -0.6702    2.2975    1.1586 C   0  0  0  0  0  0  0  0  0  4
   -1.5373    1.4987    0.4219 C   0  0  0  0  0  0  0  0  0  5
   -1.0331    0.4872   -0.3876 C   0  0  0  0  0  0  0  0  0  6
   -2.1120   -0.5044   -1.3025 Cl  0  0  0  0  0  0  0  0  0  7
   -3.2422    1.7627    0.5118 Cl  0  0  0  0  0  0  0  0  0  8
    1.7805    3.0757    2.0002 Cl  0  0  0  0  0  0  0  0  0  9
    0.3388    0.2737   -0.4609 C   0  0  0  0  0  0  0  0  0 10
 10  6  4  0  0  0
  2 10  4  0  0  0
  3  9  1  0  0  0
  5  8  1  0  0  0
  6  7  1  0  0  0
  5  6  4  0  0  0
  4  5  4  0  0  0
  3  4  4  0  0  0
  2  3  4  0  0  0
  1  2  1  0  0  0
M  END