3,4,5-Trichloroaniline
  DSViewer          3D                             0

 10 10  0  0  0  0  0  0  0  0999 V2000
   -2.1232    0.5399    0.4723 N   0  0  0  0  0  0  0  0  0  1
   -0.8115    0.0986    0.2925 C   0  0  0  0  0  0  0  0  0  2
   -0.5133   -1.2554    0.3973 C   0  0  0  0  0  0  0  0  0  3
    0.7935   -1.6948    0.2182 C   0  0  0  0  0  0  0  0  0  4
    1.1655   -3.3767    0.3481 Cl  0  0  0  0  0  0  0  0  0  5
    1.8016   -0.7805   -0.0655 C   0  0  0  0  0  0  0  0  0  6
    3.4251   -1.3268   -0.2880 Cl  0  0  0  0  0  0  0  0  0  7
    1.5033    0.5732   -0.1703 C   0  0  0  0  0  0  0  0  0  8
    2.7569    1.7082   -0.5229 Cl  0  0  0  0  0  0  0  0  0  9
    0.1967    1.0130    0.0087 C   0  0  0  0  0  0  0  0  0 10
 10  2  4  0  0  0
  8 10  4  0  0  0
  8  9  1  0  0  0
  6  8  4  0  0  0
  6  7  1  0  0  0
  4  6  4  0  0  0
  4  5  1  0  0  0
  3  4  4  0  0  0
  2  3  4  0  0  0
  1  2  1  0  0  0
M  END