2,4,6-Trichloroaniline
  DSViewer          3D                             0

 10 10  0  0  0  0  0  0  0  0999 V2000
    2.2592    0.3068    0.7620 N   0  0  0  0  0  0  0  0  0  1
    0.9597    0.7744    0.5630 C   0  0  0  0  0  0  0  0  0  2
    0.6010    2.0411    1.0095 C   0  0  0  0  0  0  0  0  0  3
   -0.6937    2.5072    0.8114 C   0  0  0  0  0  0  0  0  0  4
   -1.6295    1.7061    0.1667 C   0  0  0  0  0  0  0  0  0  5
   -1.2708    0.4392   -0.2799 C   0  0  0  0  0  0  0  0  0  6
   -3.2385    2.2851   -0.0796 Cl  0  0  0  0  0  0  0  0  0  7
    1.7645    3.0354    1.8104 Cl  0  0  0  0  0  0  0  0  0  8
    0.0240   -0.0265   -0.0816 C   0  0  0  0  0  0  0  0  0  9
    0.4709   -1.6003   -0.6360 Cl  0  0  0  0  0  0  0  0  0 10
  9 10  1  0  0  0
  9  6  4  0  0  0
  2  9  4  0  0  0
  3  8  1  0  0  0
  5  7  1  0  0  0
  5  6  4  0  0  0
  4  5  4  0  0  0
  3  4  4  0  0  0
  2  3  4  0  0  0
  1  2  1  0  0  0
M  END