3,3'-Dichlorobenzidine
  SciTegic12150910513D

 16 17  0  0  0  0            999 V2000
    2.9500   -0.5516   -0.8094 N   0  0  0  0  0  0  0  0  0  1  0  0
    1.8883    0.1632   -0.2532 C   0  0  0  0  0  0  0  0  0  2  0  0
    2.1324    1.1195    0.7259 C   0  0  0  0  0  0  0  0  0  3  0  0
    1.0756    1.8321    1.2805 C   0  0  0  0  0  0  0  0  0  4  0  0
   -0.2255    1.5880    0.8557 C   0  0  0  0  0  0  0  0  0  5  0  0
   -1.3361    2.3367    1.4383 C   0  0  0  0  0  0  0  0  0  6  0  0
   -1.0919    3.2930    2.4175 C   0  0  0  0  0  0  0  0  0  7  0  0
   -2.1488    4.0056    2.9721 C   0  0  0  0  0  0  0  0  0  8  0  0
   -3.4499    3.7615    2.5472 C   0  0  0  0  0  0  0  0  0  9  0  0
   -4.5116    4.4763    3.1033 N   0  0  0  0  0  0  0  0  0 10  0  0
   -3.6939    2.8052    1.5681 C   0  0  0  0  0  0  0  0  0 11  0  0
   -5.3108    2.5028    1.0410 Cl  0  0  0  0  0  0  0  0  0 12  0  0
   -2.6371    2.0926    1.0135 C   0  0  0  0  0  0  0  0  0 13  0  0
   -0.4697    0.6317   -0.1235 C   0  0  0  0  0  0  0  0  0 14  0  0
    3.7493    1.4219    1.2530 Cl  0  0  0  0  0  0  0  0  0 15  0  0
    0.5873   -0.0809   -0.6781 C   0  0  0  0  0  0  0  0  0 16  0  0
 16 14  4  0
  2 16  4  0
  3 15  1  0
  5 14  4  0
 13 11  4  0
  6 13  4  0
 11 12  1  0
  9 11  4  0
  9 10  1  0
  8  9  4  0
  7  8  4  0
  6  7  4  0
  5  6  1  0
  4  5  4  0
  3  4  4  0
  2  3  4  0
  1  2  1  0
M  END