2,3,4,5,6-Pentachloroaniline
  DSViewer          3D                             0

 12 12  0  0  0  0  0  0  0  0999 V2000
   -2.1673   -0.1555   -0.0002 N   0  0  0  0  0  0  0  0  0  1
   -0.7954   -0.4077    0.0304 C   0  0  0  0  0  0  0  0  0  2
   -0.3089   -1.5255    0.6985 C   0  0  0  0  0  0  0  0  0  3
   -1.4028   -2.6021    1.4908 Cl  0  0  0  0  0  0  0  0  0  4
    1.0579   -1.7768    0.7290 C   0  0  0  0  0  0  0  0  0  5
    1.6623   -3.1656    1.5592 Cl  0  0  0  0  0  0  0  0  0  6
    1.9383   -0.9104    0.0914 C   0  0  0  0  0  0  0  0  0  7
    3.6366   -1.2226    0.1293 Cl  0  0  0  0  0  0  0  0  0  8
    1.4519    0.2074   -0.5767 C   0  0  0  0  0  0  0  0  0  9
    2.5458    1.2839   -1.3689 Cl  0  0  0  0  0  0  0  0  0 10
    0.0851    0.4587   -0.6072 C   0  0  0  0  0  0  0  0  0 11
   -0.5193    1.8475   -1.4373 Cl  0  0  0  0  0  0  0  0  0 12
 11 12  1  0  0  0
 11  2  4  0  0  0
  9 11  4  0  0  0
  9 10  1  0  0  0
  7  9  4  0  0  0
  7  8  1  0  0  0
  5  7  4  0  0  0
  5  6  1  0  0  0
  3  5  4  0  0  0
  3  4  1  0  0  0
  2  3  4  0  0  0
  1  2  1  0  0  0
M  END