Bis(2-ethylhexyl)phthalate
  SciTegic12150910513D

 28 28  0  0  0  0            999 V2000
    2.1146   -0.7129   -2.1365 O   0  0  0  0  0  0  0  0  0  1  0  0
    1.3989   -0.2412   -1.2444 C   0  0  0  0  0  0  0  0  0  2  0  0
    1.6952   -0.5353    0.1004 O   0  0  0  0  0  0  0  0  0  3  0  0
    2.8424   -1.4138    0.2063 C   0  0  0  0  0  0  0  0  0  4  0  0
    2.4729   -2.8608   -0.2717 C   0  0  0  0  0  0  0  0  0  5  0  0
    1.3093   -3.5607    0.5534 C   0  0  0  0  0  0  0  0  0  6  0  0
    1.6427   -3.9754    2.0443 C   0  0  0  0  0  0  0  0  0  7  0  0
    1.7509   -2.8077    3.0520 C   0  0  0  0  0  0  0  0  0  8  0  0
    2.0980   -3.3740    4.4412 C   0  0  0  0  0  0  0  0  0  9  0  0
    3.7320   -3.7609   -0.3061 C   0  0  0  0  0  0  0  0  0 10  0  0
    3.3972   -5.1275   -0.9499 C   0  0  0  0  0  0  0  0  0 11  0  0
    0.2138    0.5574   -1.6875 C   0  0  0  0  0  0  0  0  0 12  0  0
   -0.6695    1.2888   -0.8672 C   0  0  0  0  0  0  0  0  0 13  0  0
   -1.7322    1.9317   -1.5037 C   0  0  0  0  0  0  0  0  0 14  0  0
   -1.9440    1.8771   -2.8734 C   0  0  0  0  0  0  0  0  0 15  0  0
   -1.0639    1.1630   -3.6654 C   0  0  0  0  0  0  0  0  0 16  0  0
   -0.4682    1.4450    0.6830 C   0  0  0  0  0  0  0  0  0 17  0  0
    0.6405    1.1888    1.1509 O   0  0  0  0  0  0  0  0  0 18  0  0
   -1.4326    1.9578    1.6784 O   0  0  0  0  0  0  0  0  0 19  0  0
   -2.8245    2.1787    1.3340 C   0  0  0  0  0  0  0  0  0 20  0  0
   -3.3820    3.5876    1.7169 C   0  0  0  0  0  0  0  0  0 21  0  0
   -2.7454    4.7283    0.8451 C   0  0  0  0  0  0  0  0  0 22  0  0
   -1.2356    4.9455    1.0971 C   0  0  0  0  0  0  0  0  0 23  0  0
   -1.0056    5.5175    2.5110 C   0  0  0  0  0  0  0  0  0 24  0  0
   -1.6740    6.9069    2.6227 C   0  0  0  0  0  0  0  0  0 25  0  0
   -4.8966    3.5668    1.4248 C   0  0  0  0  0  0  0  0  0 26  0  0
   -5.5265    4.9222    1.8011 C   0  0  0  0  0  0  0  0  0 27  0  0
    0.0008    0.5121   -3.0622 C   0  0  0  0  0  0  0  0  0 28  0  0
 28 16  4  0
 12 28  4  0
 26 27  1  0
 21 26  1  0
 24 25  1  0
 23 24  1  0
 22 23  1  0
 21 22  1  0
 20 21  1  0
 19 20  1  0
 17 19  1  0
 17 18  2  0
 13 17  1  0
 15 16  4  0
 14 15  4  0
 13 14  4  0
 12 13  4  0
  2 12  1  0
 10 11  1  0
  5 10  1  0
  8  9  1  0
  7  8  1  0
  6  7  1  0
  5  6  1  0
  4  5  1  0
  3  4  1  0
  2  3  1  0
  1  2  2  0
M  END