Fenvalerate
  SciTegic12150910513D

 30 32  0  0  0  0            999 V2000
   -0.0626    1.8956    3.6174 C   0  0  0  0  0  0  0  0  0  1  0  0
    0.1350    3.3522    3.0787 C   0  0  0  0  0  0  0  0  0  2  0  0
    1.5534    3.8317    3.4780 C   0  0  0  0  0  0  0  0  0  3  0  0
   -0.0716    3.5707    1.5114 C   0  0  0  0  0  0  0  0  0  4  0  0
   -1.5279    3.2651    1.0946 C   0  0  0  0  0  0  0  0  0  5  0  0
   -1.8916    3.4673   -0.0701 O   0  0  0  0  0  0  0  0  0  6  0  0
   -2.4607    2.7242    2.0754 O   0  0  0  0  0  0  0  0  0  7  0  0
   -3.8407    2.3755    1.6227 C   0  0  0  0  0  0  0  0  0  8  0  0
   -4.2218    1.4931    2.7704 C   0  0  0  0  0  0  0  0  0  9  0  0
   -4.5145    0.8108    3.6535 N   0  0  0  0  0  0  0  0  0 10  0  0
   -3.6257    1.3903    0.5825 C   0  0  0  0  0  0  0  0  0 11  0  0
   -4.2202    1.2899   -0.6720 C   0  0  0  0  0  0  0  0  0 12  0  0
   -3.8180    0.2407   -1.5119 C   0  0  0  0  0  0  0  0  0 13  0  0
   -2.8306   -0.6753   -1.1177 C   0  0  0  0  0  0  0  0  0 14  0  0
   -2.2585   -0.4982    0.1404 C   0  0  0  0  0  0  0  0  0 15  0  0
   -1.2310   -1.0693    0.7345 O   0  0  0  0  0  0  0  0  0 16  0  0
   -0.6846   -2.2041    0.5415 C   0  0  0  0  0  0  0  0  0 17  0  0
   -1.3196   -3.3335    0.0482 C   0  0  0  0  0  0  0  0  0 18  0  0
   -0.5842   -4.5114   -0.0060 C   0  0  0  0  0  0  0  0  0 19  0  0
    0.7512   -4.5320    0.3921 C   0  0  0  0  0  0  0  0  0 20  0  0
    1.3729   -3.3861    0.8663 C   0  0  0  0  0  0  0  0  0 21  0  0
    0.6331   -2.2272    0.9601 C   0  0  0  0  0  0  0  0  0 22  0  0
   -2.6648    0.5055    0.9479 C   0  0  0  0  0  0  0  0  0 23  0  0
    1.0899    2.8478    0.7235 C   0  0  0  0  0  0  0  0  0 24  0  0
    2.0363    3.6401    0.0787 C   0  0  0  0  0  0  0  0  0 25  0  0
    3.1926    3.0791   -0.4528 C   0  0  0  0  0  0  0  0  0 26  0  0
    3.4243    1.7145   -0.3338 C   0  0  0  0  0  0  0  0  0 27  0  0
    4.9123    1.0357   -0.9022 Cl  0  0  0  0  0  0  0  0  0 28  0  0
    2.4721    0.9061    0.2746 C   0  0  0  0  0  0  0  0  0 29  0  0
    1.3137    1.4714    0.7995 C   0  0  0  0  0  0  0  0  0 30  0  0
 30 24  4  0
 29 30  4  0
 27 29  4  0
 27 28  1  0
 26 27  4  0
 25 26  4  0
 24 25  4  0
  4 24  1  0
 23 11  4  0
 15 23  4  0
 22 17  4  0
 21 22  4  0
 20 21  4  0
 19 20  4  0
 18 19  4  0
 17 18  4  0
 16 17  1  0
 15 16  1  0
 14 15  4  0
 13 14  4  0
 12 13  4  0
 11 12  4  0
  8 11  1  0
  9 10  3  0
  8  9  1  0
  7  8  1  0
  5  7  1  0
  5  6  2  0
  4  5  1  0
  2  4  1  0
  2  3  1  0
  1  2  1  0
M  END