Benzyl butyl phthalate
  SciTegic12150910513D

 23 24  0  0  0  0            999 V2000
    2.2928   -1.0582   -0.6629 O   0  0  0  0  0  0  0  0  0  1  0  0
    1.4317   -0.3464   -0.1325 C   0  0  0  0  0  0  0  0  0  2  0  0
    1.1274   -0.5570    1.2163 O   0  0  0  0  0  0  0  0  0  3  0  0
    1.9216   -1.6354    1.7589 C   0  0  0  0  0  0  0  0  0  4  0  0
    1.4106   -3.0068    1.3439 C   0  0  0  0  0  0  0  0  0  5  0  0
    0.1444   -3.1643    0.7870 C   0  0  0  0  0  0  0  0  0  6  0  0
   -0.3039   -4.4267    0.4157 C   0  0  0  0  0  0  0  0  0  7  0  0
    0.5124   -5.5364    0.6011 C   0  0  0  0  0  0  0  0  0  8  0  0
    1.7757   -5.3826    1.1604 C   0  0  0  0  0  0  0  0  0  9  0  0
    2.2226   -4.1198    1.5326 C   0  0  0  0  0  0  0  0  0 10  0  0
    0.7836    0.6958   -0.9804 C   0  0  0  0  0  0  0  0  0 11  0  0
   -0.1909    1.6211   -0.5676 C   0  0  0  0  0  0  0  0  0 12  0  0
   -0.6867    2.5358   -1.4920 C   0  0  0  0  0  0  0  0  0 13  0  0
   -0.2447    2.5529   -2.8074 C   0  0  0  0  0  0  0  0  0 14  0  0
    0.7151    1.6404   -3.2153 C   0  0  0  0  0  0  0  0  0 15  0  0
   -0.7697    1.7393    0.7950 C   0  0  0  0  0  0  0  0  0 16  0  0
   -0.4763    0.9868    1.7241 O   0  0  0  0  0  0  0  0  0 17  0  0
   -1.6826    2.7659    1.0135 O   0  0  0  0  0  0  0  0  0 18  0  0
   -2.1573    2.7542    2.3577 C   0  0  0  0  0  0  0  0  0 19  0  0
   -3.0591    3.9843    2.5578 C   0  0  0  0  0  0  0  0  0 20  0  0
   -4.2051    3.9500    1.5298 C   0  0  0  0  0  0  0  0  0 21  0  0
   -5.0856    5.2013    1.7000 C   0  0  0  0  0  0  0  0  0 22  0  0
    1.2193    0.7248   -2.3019 C   0  0  0  0  0  0  0  0  0 23  0  0
 23 15  4  0
 11 23  4  0
 21 22  1  0
 20 21  1  0
 19 20  1  0
 18 19  1  0
 16 18  1  0
 16 17  2  0
 12 16  1  0
 14 15  4  0
 13 14  4  0
 12 13  4  0
 11 12  4  0
  2 11  1  0
 10  9  4  0
  5 10  4  0
  8  9  4  0
  7  8  4  0
  6  7  4  0
  5  6  4  0
  4  5  1  0
  3  4  1  0
  2  3  1  0
  1  2  2  0
M  END