Bis(2-chloroethyl)ether
  SciTegic12150910513D

  7  6  0  0  0  0            999 V2000
   -0.4076    0.1188    0.1096 O   0  0  0  0  0  0  0  0  0  1  0  0
    0.8564   -0.5555    0.0962 C   0  0  0  0  0  0  0  0  0  2  0  0
    0.9063   -1.5688    1.2522 C   0  0  0  0  0  0  0  0  0  3  0  0
    0.7020   -0.7166    2.7859 Cl  0  0  0  0  0  0  0  0  0  4  0  0
   -0.5250    1.1070   -0.9472 C   0  0  0  0  0  0  0  0  0  5  0  0
    0.2430    2.4402   -0.6520 C   0  0  0  0  0  0  0  0  0  6  0  0
    2.0088    2.2615   -0.6463 Cl  0  0  0  0  0  0  0  0  0  7  0  0
  6  7  1  0
  5  6  1  0
  1  5  1  0
  3  4  1  0
  2  3  1  0
  1  2  1  0
M  END