2,4,6-Trichloroanisole
  SciTegic12150910513D

 11 11  0  0  0  0            999 V2000
    1.4200   -0.9013   -0.6261 C   0  0  0  0  0  0  0  0  0  1  0  0
    2.4939   -0.0291   -0.4739 C   0  0  0  0  0  0  0  0  0  2  0  0
    4.0217   -0.6146   -1.0839 Cl  0  0  0  0  0  0  0  0  0  3  0  0
    2.2842    1.2219    0.1395 C   0  0  0  0  0  0  0  0  0  4  0  0
    3.2705    2.2604    0.3868 O   0  0  0  0  0  0  0  0  0  5  0  0
    4.6249    2.0556   -0.0118 C   0  0  0  0  0  0  0  0  0  6  0  0
    1.0010    1.5445    0.5753 C   0  0  0  0  0  0  0  0  0  7  0  0
    0.7272    3.0742    1.3293 Cl  0  0  0  0  0  0  0  0  0  8  0  0
   -0.0619    0.6652    0.4174 C   0  0  0  0  0  0  0  0  0  9  0  0
    0.1483   -0.5640   -0.1863 C   0  0  0  0  0  0  0  0  0 10  0  0
   -1.1641   -1.6690   -0.3900 Cl  0  0  0  0  0  0  0  0  0 11  0  0
 10 11  1  0
 10  1  4  0
  9 10  4  0
  7  9  4  0
  7  8  1  0
  4  7  4  0
  5  6  1  0
  4  5  1  0
  2  4  4  0
  2  3  1  0
  1  2  4  0
M  END