4-Nitroaniline
  DSViewer          3D                             0

 10 10  0  0  0  0  0  0  0  0999 V2000
    2.1918   -0.8712   -0.0088 N   0  0  0  0  0  0  0  0  0  1
    2.9869   -0.7433    0.8477 O   0  0  0  0  0  0  0  0  0  2
    1.8404   -1.4237   -0.9853 O   0  0  0  0  0  0  0  0  0  3
    1.2000    0.0776    0.2593 C   0  0  0  0  0  0  0  0  0  4
    1.3157    0.9110    1.3664 C   0  0  0  0  0  0  0  0  0  5
    0.3299    1.8542    1.6330 C   0  0  0  0  0  0  0  0  0  6
   -0.7721    1.9642    0.7925 C   0  0  0  0  0  0  0  0  0  7
   -1.7619    2.9111    1.0601 N   0  0  0  0  0  0  0  0  0  8
   -0.8884    1.1312   -0.3146 C   0  0  0  0  0  0  0  0  0  9
    0.0976    0.1881   -0.5811 C   0  0  0  0  0  0  0  0  0 10
 10  9  4  0  0  0
  4 10  4  0  0  0
  7  9  4  0  0  0
  7  8  1  0  0  0
  6  7  4  0  0  0
  5  6  4  0  0  0
  4  5  4  0  0  0
  1  4  1  0  0  0
  1  3  2  0  0  0
  1  2  2  0  0  0
M  END