3-Nitrophenol
  SciTegic12150910513D

 10 10  0  0  0  0            999 V2000
    2.0190   -0.5756    0.3344 N   0  0  0  0  0  0  0  0  0  1  0  0
    2.7655   -0.1986    1.1609 O   0  0  0  0  0  0  0  0  0  2  0  0
    1.7394   -1.3694   -0.4865 O   0  0  0  0  0  0  0  0  0  3  0  0
    0.9759    0.3556    0.3222 C   0  0  0  0  0  0  0  0  0  4  0  0
    1.0018    1.4410    1.1911 C   0  0  0  0  0  0  0  0  0  5  0  0
   -0.0352    2.3669    1.1791 C   0  0  0  0  0  0  0  0  0  6  0  0
   -1.0987    2.2077    0.2978 C   0  0  0  0  0  0  0  0  0  7  0  0
   -1.1249    1.1227   -0.5711 C   0  0  0  0  0  0  0  0  0  8  0  0
   -2.1886    0.9634   -1.4526 O   0  0  0  0  0  0  0  0  0  9  0  0
   -0.0879    0.1969   -0.5589 C   0  0  0  0  0  0  0  0  0 10  0  0
 10  8  4  0
  4 10  4  0
  8  9  1  0
  7  8  4  0
  6  7  4  0
  5  6  4  0
  4  5  4  0
  1  4  1  0
  1  3  2  0
  1  2  2  0
M  END