3-Chloronitrobenzene
  DSViewer          3D                             0

 10 10  0  0  0  0  0  0  0  0999 V2000
    2.7895   -0.2214    1.1647 O   0  0  0  0  0  0  0  0  0  1
    2.0430   -0.5792    0.3298 N   0  0  0  0  0  0  0  0  0  2
    1.7626   -1.3547   -0.5082 O   0  0  0  0  0  0  0  0  0  3
    1.0015    0.3539    0.3369 C   0  0  0  0  0  0  0  0  0  4
    1.0286    1.4203    1.2290 C   0  0  0  0  0  0  0  0  0  5
   -0.0068    2.3480    1.2360 C   0  0  0  0  0  0  0  0  0  6
   -1.0699    2.2096    0.3508 C   0  0  0  0  0  0  0  0  0  7
   -1.0973    1.1436   -0.5413 C   0  0  0  0  0  0  0  0  0  8
   -2.4184    0.9715   -1.6414 Cl  0  0  0  0  0  0  0  0  0  9
   -0.0620    0.2160   -0.5483 C   0  0  0  0  0  0  0  0  0 10
 10  8  4  0  0  0
  4 10  4  0  0  0
  8  9  1  0  0  0
  7  8  4  0  0  0
  6  7  4  0  0  0
  5  6  4  0  0  0
  4  5  4  0  0  0
  2  4  1  0  0  0
  2  3  2  0  0  0
  1  2  2  0  0  0
M  END