4-Chloronitrobenzene
  SciTegic12150910513D

 10 10  0  0  0  0            999 V2000
    2.1996   -0.6132   -0.1131 N   0  0  0  0  0  0  0  0  0  1  0  0
    3.0880   -0.2177    0.5477 O   0  0  0  0  0  0  0  0  0  2  0  0
    1.7986   -1.3757   -0.9131 O   0  0  0  0  0  0  0  0  0  3  0  0
    1.1105    0.2071    0.1981 C   0  0  0  0  0  0  0  0  0  4  0  0
    1.2537    1.2303    1.1288 C   0  0  0  0  0  0  0  0  0  5  0  0
    0.1711    2.0457    1.4381 C   0  0  0  0  0  0  0  0  0  6  0  0
   -1.0552    1.8381    0.8167 C   0  0  0  0  0  0  0  0  0  7  0  0
   -1.1989    0.8153   -0.1140 C   0  0  0  0  0  0  0  0  0  8  0  0
   -2.4007    2.8515    1.2010 Cl  0  0  0  0  0  0  0  0  0  9  0  0
   -0.1162    0.0000   -0.4232 C   0  0  0  0  0  0  0  0  0 10  0  0
 10  8  4  0
  4 10  4  0
  7  9  1  0
  7  8  4  0
  6  7  4  0
  5  6  4  0
  4  5  4  0
  1  4  1  0
  1  3  2  0
  1  2  2  0
M  END