2,4-Dichloronitrobenzene
  DSViewer          3D                             0

 11 11  0  0  0  0  0  0  0  0999 V2000
    2.7768    0.2745    1.2480 O   0  0  0  0  0  0  0  0  0  1
    2.1406   -0.2371    0.4097 N   0  0  0  0  0  0  0  0  0  2
    2.0757   -1.0819   -0.4054 O   0  0  0  0  0  0  0  0  0  3
    0.8918    0.4497    0.3211 C   0  0  0  0  0  0  0  0  0  4
    0.5489    1.5417    1.1283 C   0  0  0  0  0  0  0  0  0  5
   -0.6927    2.1492    0.9707 C   0  0  0  0  0  0  0  0  0  6
   -1.5954    1.6853    0.0226 C   0  0  0  0  0  0  0  0  0  7
   -1.2584    0.6034   -0.7787 C   0  0  0  0  0  0  0  0  0  8
   -3.1328    2.4526   -0.1586 Cl  0  0  0  0  0  0  0  0  0  9
    1.6127    2.1927    2.3416 Cl  0  0  0  0  0  0  0  0  0 10
   -0.0201   -0.0072   -0.6260 C   0  0  0  0  0  0  0  0  0 11
 11  8  4  0  0  0
  4 11  4  0  0  0
  5 10  1  0  0  0
  7  9  1  0  0  0
  7  8  4  0  0  0
  6  7  4  0  0  0
  5  6  4  0  0  0
  4  5  4  0  0  0
  2  4  1  0  0  0
  2  3  2  0  0  0
  1  2  2  0  0  0
M  END