3,5-Dichloronitrobenzene
  SciTegic12150910513D

 11 11  0  0  0  0            999 V2000
    2.8391   -0.2287    1.0539 O   0  0  0  0  0  0  0  0  0  1  0  0
    1.9561   -0.7706    0.4981 N   0  0  0  0  0  0  0  0  0  2  0  0
    1.4994   -1.7574    0.0511 O   0  0  0  0  0  0  0  0  0  3  0  0
    1.0034    0.2236    0.2552 C   0  0  0  0  0  0  0  0  0  4  0  0
    1.2410    1.5303    0.6670 C   0  0  0  0  0  0  0  0  0  5  0  0
    0.2939    2.5188    0.4254 C   0  0  0  0  0  0  0  0  0  6  0  0
   -0.8914    2.2013   -0.2281 C   0  0  0  0  0  0  0  0  0  7  0  0
   -1.1293    0.8949   -0.6399 C   0  0  0  0  0  0  0  0  0  8  0  0
   -2.6021    0.4998   -1.4520 Cl  0  0  0  0  0  0  0  0  0  9  0  0
    0.5899    4.1420    0.9374 Cl  0  0  0  0  0  0  0  0  0 10  0  0
   -0.1822   -0.0936   -0.3984 C   0  0  0  0  0  0  0  0  0 11  0  0
 11  8  4  0
  4 11  4  0
  6 10  1  0
  8  9  1  0
  7  8  4  0
  6  7  4  0
  5  6  4  0
  4  5  4  0
  2  4  1  0
  2  3  2  0
  1  2  2  0
M  END