Chlornitrofen
  SciTegic12150910513D

 19 20  0  0  0  0            999 V2000
   -3.5856    0.5885   -0.2659 Cl  0  0  0  0  0  0  0  0  0  1  0  0
   -1.9614    0.0738    0.0187 C   0  0  0  0  0  0  0  0  0  2  0  0
   -1.7081   -1.1395    0.6336 C   0  0  0  0  0  0  0  0  0  3  0  0
   -0.3953   -1.5373    0.8518 C   0  0  0  0  0  0  0  0  0  4  0  0
   -0.0999   -3.0587    1.6146 Cl  0  0  0  0  0  0  0  0  0  5  0  0
    0.6919   -0.7565    0.4656 C   0  0  0  0  0  0  0  0  0  6  0  0
    1.9770   -1.4160    0.8059 O   0  0  0  0  0  0  0  0  0  7  0  0
    3.3376   -1.0962    0.4348 C   0  0  0  0  0  0  0  0  0  8  0  0
    3.7166   -0.1298   -0.4874 C   0  0  0  0  0  0  0  0  0  9  0  0
    5.0507    0.0824   -0.8071 C   0  0  0  0  0  0  0  0  0 10  0  0
    6.0378   -0.6859   -0.2024 C   0  0  0  0  0  0  0  0  0 11  0  0
    5.6777   -1.6614    0.7160 C   0  0  0  0  0  0  0  0  0 12  0  0
    4.3361   -1.8646    1.0247 C   0  0  0  0  0  0  0  0  0 13  0  0
    7.3816   -0.4767   -0.5244 N   0  0  0  0  0  0  0  0  0 14  0  0
    7.9836   -1.2414    0.1353 O   0  0  0  0  0  0  0  0  0 15  0  0
    7.3807    0.3806   -1.3288 O   0  0  0  0  0  0  0  0  0 16  0  0
    0.4219    0.4848   -0.1517 C   0  0  0  0  0  0  0  0  0 17  0  0
    1.5850    1.6480   -0.6622 Cl  0  0  0  0  0  0  0  0  0 18  0  0
   -0.8970    0.8747   -0.3617 C   0  0  0  0  0  0  0  0  0 19  0  0
 19  2  4  0
 17 19  4  0
 17 18  1  0
  6 17  4  0
 14 16  2  0
 14 15  2  0
 11 14  1  0
 13  8  4  0
 12 13  4  0
 11 12  4  0
 10 11  4  0
  9 10  4  0
  8  9  4  0
  7  8  1  0
  6  7  1  0
  4  6  4  0
  4  5  1  0
  3  4  4  0
  2  3  4  0
  1  2  1  0
M  END