Phenthoate
  SciTegic12150910513D

 19 19  0  0  0  0            999 V2000
    2.6705    1.5815    3.7479 C   0  0  0  0  0  0  0  0  0  1  0  0
    2.2974    0.1108    3.4316 C   0  0  0  0  0  0  0  0  0  2  0  0
    1.6221    0.0204    2.1631 O   0  0  0  0  0  0  0  0  0  3  0  0
    0.3025    0.5057    2.2269 C   0  0  0  0  0  0  0  0  0  4  0  0
   -0.1627    0.9013    3.3027 O   0  0  0  0  0  0  0  0  0  5  0  0
   -0.5935    0.5359    0.9988 C   0  0  0  0  0  0  0  0  0  6  0  0
   -2.1048    1.5306    1.1632 S   0  0  0  0  0  0  0  0  0  7  0  0
   -1.8119    3.4339    1.5336 P   0  0  0  0  0  0  0  0  0  8  0  0
   -3.3585    4.1368    1.7179 S   0  0  0  0  0  0  0  0  0  9  0  0
   -1.0738    4.2137    0.3725 O   0  0  0  0  0  0  0  0  0 10  0  0
    0.3178    3.8735    0.2380 C   0  0  0  0  0  0  0  0  0 11  0  0
   -1.0484    3.5867    2.8857 O   0  0  0  0  0  0  0  0  0 12  0  0
   -1.0569    4.9585    3.3197 C   0  0  0  0  0  0  0  0  0 13  0  0
    0.0104    0.4464   -0.3978 C   0  0  0  0  0  0  0  0  0 14  0  0
   -0.7729    0.8088   -1.4881 C   0  0  0  0  0  0  0  0  0 15  0  0
   -0.2590    0.7366   -2.7780 C   0  0  0  0  0  0  0  0  0 16  0  0
    1.0436    0.2982   -2.9832 C   0  0  0  0  0  0  0  0  0 17  0  0
    1.8297   -0.0684   -1.8970 C   0  0  0  0  0  0  0  0  0 18  0  0
    1.3131    0.0051   -0.6088 C   0  0  0  0  0  0  0  0  0 19  0  0
 19 14  4  0
 18 19  4  0
 17 18  4  0
 16 17  4  0
 15 16  4  0
 14 15  4  0
  6 14  1  0
 12 13  1  0
  8 12  1  0
 10 11  1  0
  8 10  1  0
  8  9  2  0
  7  8  1  0
  6  7  1  0
  4  6  1  0
  4  5  2  0
  3  4  1  0
  2  3  1  0
  1  2  1  0
M  END