Fenitrothion
  SciTegic12150910513D

 17 17  0  0  0  0            999 V2000
    0.4670    3.2433    2.6373 C   0  0  0  0  0  0  0  0  0  1  0  0
    0.5770    3.3533    1.2008 O   0  0  0  0  0  0  0  0  0  2  0  0
   -0.6911    2.7599    0.4939 P   0  0  0  0  0  0  0  0  0  3  0  0
   -0.5526    2.9169   -1.2049 S   0  0  0  0  0  0  0  0  0  4  0  0
   -1.9512    3.5614    0.9348 O   0  0  0  0  0  0  0  0  0  5  0  0
   -1.8685    4.9177    0.4640 C   0  0  0  0  0  0  0  0  0  6  0  0
   -0.9039    1.2496    0.8939 O   0  0  0  0  0  0  0  0  0  7  0  0
    0.1555    0.3665    0.5449 C   0  0  0  0  0  0  0  0  0  8  0  0
    0.0350   -0.9787    0.8583 C   0  0  0  0  0  0  0  0  0  9  0  0
    1.0560   -1.8608    0.5313 C   0  0  0  0  0  0  0  0  0 10  0  0
    2.2157   -1.4336   -0.1100 C   0  0  0  0  0  0  0  0  0 11  0  0
    3.1934   -2.4843   -0.3840 N   0  0  0  0  0  0  0  0  0 12  0  0
    2.6917   -3.4583    0.0425 O   0  0  0  0  0  0  0  0  0 13  0  0
    4.1342   -2.0437   -0.9219 O   0  0  0  0  0  0  0  0  0 14  0  0
    2.3389   -0.0675   -0.4273 C   0  0  0  0  0  0  0  0  0 15  0  0
    3.5353    0.5591   -1.1233 C   0  0  0  0  0  0  0  0  0 16  0  0
    1.3083    0.8057   -0.0942 C   0  0  0  0  0  0  0  0  0 17  0  0
 17  8  4  0
 15 17  4  0
 15 16  1  0
 11 15  4  0
 12 14  2  0
 12 13  2  0
 11 12  1  0
 10 11  4  0
  9 10  4  0
  8  9  4  0
  7  8  1  0
  3  7  1  0
  5  6  1  0
  3  5  1  0
  3  4  2  0
  2  3  1  0
  1  2  1  0
M  END