Isofenphos
  SciTegic12150910513D

 22 22  0  0  0  0            999 V2000
    5.4727    3.4664    2.4376 C   0  0  0  0  0  0  0  0  0  1  0  0
    5.4829    2.2694    1.4631 C   0  0  0  0  0  0  0  0  0  2  0  0
    4.2201    1.5531    1.4384 O   0  0  0  0  0  0  0  0  0  3  0  0
    3.0798    2.3260    0.6715 P   0  0  2  0  0  0  0  0  0  4  0  0
    3.6747    2.7838   -0.8692 S   0  0  0  0  0  0  0  0  0  5  0  0
    2.6161    3.6129    1.5366 N   0  0  0  0  0  0  0  0  0  6  0  0
    1.3711    4.2741    1.0444 C   0  0  0  0  0  0  0  0  0  7  0  0
    1.5581    4.9517   -0.3278 C   0  0  0  0  0  0  0  0  0  8  0  0
    0.9571    5.3554    2.0580 C   0  0  0  0  0  0  0  0  0  9  0  0
    1.8156    1.3959    0.5319 O   0  0  0  0  0  0  0  0  0 10  0  0
    2.0303    0.1579   -0.1345 C   0  0  0  0  0  0  0  0  0 11  0  0
    3.2821   -0.2051   -0.6221 C   0  0  0  0  0  0  0  0  0 12  0  0
    3.4688   -1.4213   -1.2680 C   0  0  0  0  0  0  0  0  0 13  0  0
    2.3972   -2.2894   -1.4313 C   0  0  0  0  0  0  0  0  0 14  0  0
    1.1441   -1.9351   -0.9469 C   0  0  0  0  0  0  0  0  0 15  0  0
    0.9590   -0.7183   -0.3013 C   0  0  0  0  0  0  0  0  0 16  0  0
   -0.3762   -0.3779    0.1973 C   0  0  0  0  0  0  0  0  0 17  0  0
   -0.5571    0.7029    0.7723 O   0  0  0  0  0  0  0  0  0 18  0  0
   -1.4274   -1.3189   -0.0028 O   0  0  0  0  0  0  0  0  0 19  0  0
   -2.7356   -0.9347    0.5109 C   0  0  0  0  0  0  0  0  0 20  0  0
   -3.3027    0.3218   -0.1926 C   0  0  0  0  0  0  0  0  0 21  0  0
   -2.7449   -0.7769    2.0506 C   0  0  0  0  0  0  0  0  0 22  0  0
 20 22  1  0
 20 21  1  0
 19 20  1  0
 17 19  1  0
 17 18  2  0
 16 17  1  0
 16 11  4  0
 15 16  4  0
 14 15  4  0
 13 14  4  0
 12 13  4  0
 11 12  4  0
 10 11  1  0
  4 10  1  0
  7  9  1  0
  7  8  1  0
  6  7  1  0
  4  6  1  0
  4  5  2  0
  3  4  1  0
  2  3  1  0
  1  2  1  0
M  END