BPMC
  SciTegic12150910513D

 15 15  0  0  0  0            999 V2000
    2.2392   -1.0649   -0.5018 O   0  0  0  0  0  0  0  0  0  1  0  0
    2.2920   -0.4397    0.5631 C   0  0  0  0  0  0  0  0  0  2  0  0
    1.3971    0.6269    0.9003 O   0  0  0  0  0  0  0  0  0  3  0  0
    0.3699    1.0170   -0.0287 C   0  0  0  0  0  0  0  0  0  4  0  0
   -0.4811    2.0630    0.3300 C   0  0  0  0  0  0  0  0  0  5  0  0
   -1.4829    2.4679   -0.5498 C   0  0  0  0  0  0  0  0  0  6  0  0
   -1.6432    1.8473   -1.7816 C   0  0  0  0  0  0  0  0  0  7  0  0
   -0.7965    0.8084   -2.1412 C   0  0  0  0  0  0  0  0  0  8  0  0
   -0.3074    2.7426    1.7056 C   0  0  0  0  0  0  0  0  0  9  0  0
   -1.1550    4.0396    1.9148 C   0  0  0  0  0  0  0  0  0 10  0  0
   -0.6854    5.2062    0.9984 C   0  0  0  0  0  0  0  0  0 11  0  0
   -0.6604    1.7218    2.8114 C   0  0  0  0  0  0  0  0  0 12  0  0
    0.2021    0.4004   -1.2664 C   0  0  0  0  0  0  0  0  0 13  0  0
    3.2757   -0.7905    1.4876 N   0  0  0  0  0  0  0  0  0 14  0  0
    3.3686   -0.0876    2.7347 C   0  0  0  0  0  0  0  0  0 15  0  0
 14 15  1  0
  2 14  1  0
 13  8  4  0
  4 13  4  0
  9 12  1  0
 10 11  1  0
  9 10  1  0
  5  9  1  0
  7  8  4  0
  6  7  4  0
  5  6  4  0
  4  5  4  0
  3  4  1  0
  2  3  1  0
  1  2  2  0
M  END