Thiobencarb
  SciTegic12150910513D

 16 16  0  0  0  0            999 V2000
    3.0067    5.1182    1.7368 C   0  0  0  0  0  0  0  0  0  1  0  0
    1.9183    4.7024    0.7209 C   0  0  0  0  0  0  0  0  0  2  0  0
    0.5998    4.7350    1.3175 N   0  0  0  0  0  0  0  0  0  3  0  0
    0.4101    5.3547    2.6254 C   0  0  0  0  0  0  0  0  0  4  0  0
   -0.7367    6.3978    2.6110 C   0  0  0  0  0  0  0  0  0  5  0  0
   -0.4739    4.1213    0.6261 C   0  0  0  0  0  0  0  0  0  6  0  0
   -1.6095    4.0784    1.1144 O   0  0  0  0  0  0  0  0  0  7  0  0
   -0.2021    3.4079   -0.9765 S   0  0  0  0  0  0  0  0  0  8  0  0
   -0.8601    1.7195   -1.0036 C   0  0  0  0  0  0  0  0  0  9  0  0
    0.1509    0.7835   -0.3947 C   0  0  0  0  0  0  0  0  0 10  0  0
    1.4445    1.2283   -0.1495 C   0  0  0  0  0  0  0  0  0 11  0  0
    2.3907    0.3676    0.3937 C   0  0  0  0  0  0  0  0  0 12  0  0
    2.0424   -0.9438    0.6923 C   0  0  0  0  0  0  0  0  0 13  0  0
    3.2195   -2.0161    1.3639 Cl  0  0  0  0  0  0  0  0  0 14  0  0
    0.7484   -1.3920    0.4477 C   0  0  0  0  0  0  0  0  0 15  0  0
   -0.1969   -0.5299   -0.0978 C   0  0  0  0  0  0  0  0  0 16  0  0
 16 10  4  0
 15 16  4  0
 13 15  4  0
 13 14  1  0
 12 13  4  0
 11 12  4  0
 10 11  4  0
  9 10  1  0
  8  9  1  0
  6  8  1  0
  6  7  2  0
  3  6  1  0
  4  5  1  0
  3  4  1  0
  2  3  1  0
  1  2  1  0
M  END