Acridine
  SciTegic12150910513D

 14 16  0  0  0  0            999 V2000
   -1.8818    0.7137    0.2585 N   0  0  0  0  0  0  0  0  0  1  0  0
   -1.7423    2.0137    0.4977 C   0  0  0  0  0  0  0  0  0  2  0  0
   -0.4793    2.5954    0.5225 C   0  0  0  0  0  0  0  0  0  3  0  0
   -0.3394    3.9553    0.7731 C   0  0  0  0  0  0  0  0  0  4  0  0
   -1.4664    4.7369    1.0000 C   0  0  0  0  0  0  0  0  0  5  0  0
   -2.7302    4.1577    0.9758 C   0  0  0  0  0  0  0  0  0  6  0  0
    0.6396    1.8071    0.2949 C   0  0  0  0  0  0  0  0  0  7  0  0
    0.4561    0.4540    0.0485 C   0  0  0  0  0  0  0  0  0  8  0  0
    1.5504   -0.3707   -0.1844 C   0  0  0  0  0  0  0  0  0  9  0  0
    1.3565   -1.7251   -0.4303 C   0  0  0  0  0  0  0  0  0 10  0  0
    0.0697   -2.2519   -0.4429 C   0  0  0  0  0  0  0  0  0 11  0  0
   -1.0236   -1.4252   -0.2097 C   0  0  0  0  0  0  0  0  0 12  0  0
   -2.8681    2.7971    0.7249 C   0  0  0  0  0  0  0  0  0 13  0  0
   -0.8319   -0.0705    0.0364 C   0  0  0  0  0  0  0  0  0 14  0  0
 14 12  4  0
 14  8  4  0
  1 14  4  0
 13  6  4  0
  2 13  4  0
 11 12  4  0
 10 11  4  0
  9 10  4  0
  8  9  4  0
  7  8  4  0
  3  7  4  0
  5  6  4  0
  4  5  4  0
  3  4  4  0
  2  3  4  0
  1  2  4  0
M  END