Heptachlor epoxide
  SciTegic12150910513D

 18 21  0  0  0  0            999 V2000
   -1.3961    5.0575   -0.1195 Cl  0  0  0  0  0  0  0  0  0  1  0  0
   -0.4421    3.6503   -0.5963 C   0  0  0  0  0  0  0  0  0  2  0  0
    0.2288    3.1914    0.7360 C   0  0  0  0  0  0  0  0  0  3  0  0
   -0.6339    3.7434    1.7843 O   0  0  0  0  0  0  0  0  0  4  0  0
   -0.8637    2.3663    1.5232 C   0  0  0  0  0  0  0  0  0  5  0  0
   -1.9718    2.1315    0.4383 C   0  0  0  0  0  0  0  0  0  6  0  0
   -1.4148    2.5140   -0.9056 C   0  0  0  0  0  0  0  0  0  7  0  0
   -1.0928    1.1755   -1.6382 C   0  0  1  0  0  0  0  0  0  8  0  0
   -0.6864    1.3883   -3.3424 Cl  0  0  0  0  0  0  0  0  0  9  0  0
   -0.1807    0.2757   -0.9143 C   0  0  0  0  0  0  0  0  0 10  0  0
   -0.7858   -0.0949    0.1944 C   0  0  0  0  0  0  0  0  0 11  0  0
   -0.1361   -1.1835    1.3685 Cl  0  0  0  0  0  0  0  0  0 12  0  0
   -2.1499    0.5679    0.2718 C   0  0  1  0  0  0  0  0  0 13  0  0
   -3.1987   -0.1539    1.4940 Cl  0  0  0  0  0  0  0  0  0 14  0  0
   -2.4732    0.4864   -1.2485 C   0  0  0  0  0  0  0  0  0 15  0  0
   -3.9186    1.3684   -1.7506 Cl  0  0  0  0  0  0  0  0  0 16  0  0
   -2.5483   -1.1844   -1.8140 Cl  0  0  0  0  0  0  0  0  0 17  0  0
    1.3785   -0.2392   -1.4460 Cl  0  0  0  0  0  0  0  0  0 18  0  0
 10 18  1  0
 15 17  1  0
 15 16  1  0
 15  8  1  0
 13 15  1  0
 13 14  1  0
 13  6  1  0
 11 13  1  0
 11 12  1  0
 10 11  2  0
  8 10  1  0
  8  9  1  0
  7  8  1  0
  7  2  1  0
  6  7  1  0
  5  6  1  0
  5  3  1  0
  4  5  1  0
  3  4  1  0
  2  3  1  0
  1  2  1  0
M  END