o,p'-DDT
  SciTegic12150910513D

 19 20  0  0  0  0            999 V2000
    2.3319    6.8858    0.6539 Cl  0  0  0  0  0  0  0  0  0  1  0  0
    1.4222    5.4279    0.4764 C   0  0  0  0  0  0  0  0  0  2  0  0
    2.0214    4.1986    0.7220 C   0  0  0  0  0  0  0  0  0  3  0  0
    1.2877    3.0274    0.5769 C   0  0  0  0  0  0  0  0  0  4  0  0
   -0.0496    3.0706    0.1853 C   0  0  0  0  0  0  0  0  0  5  0  0
   -0.6406    4.3074   -0.0545 C   0  0  0  0  0  0  0  0  0  6  0  0
    0.0895    5.4817    0.0880 C   0  0  0  0  0  0  0  0  0  7  0  0
   -0.8746    1.7712    0.0259 C   0  0  0  0  0  0  0  0  0  8  0  0
    0.0960    0.5721   -0.3788 C   0  0  0  0  0  0  0  0  0  9  0  0
    0.8292    0.7932   -1.5469 C   0  0  0  0  0  0  0  0  0 10  0  0
    1.7147   -0.1446   -2.0582 C   0  0  0  0  0  0  0  0  0 11  0  0
    1.8848   -1.3512   -1.4000 C   0  0  0  0  0  0  0  0  0 12  0  0
    1.1620   -1.5976   -0.2424 C   0  0  0  0  0  0  0  0  0 13  0  0
    0.2713   -0.6614    0.2765 C   0  0  0  0  0  0  0  0  0 14  0  0
   -0.5349   -1.1469    1.7269 Cl  0  0  0  0  0  0  0  0  0 15  0  0
   -1.8855    1.6164    1.2347 C   0  0  0  0  0  0  0  0  0 16  0  0
   -2.9342    0.2127    0.9763 Cl  0  0  0  0  0  0  0  0  0 17  0  0
   -2.9562    3.0209    1.3600 Cl  0  0  0  0  0  0  0  0  0 18  0  0
   -1.0050    1.4791    2.7657 Cl  0  0  0  0  0  0  0  0  0 19  0  0
 16 19  1  0
 16 18  1  0
 16 17  1  0
  8 16  1  0
 14 15  1  0
 14  9  4  0
 13 14  4  0
 12 13  4  0
 11 12  4  0
 10 11  4  0
  9 10  4  0
  8  9  1  0
  5  8  1  0
  7  2  4  0
  6  7  4  0
  5  6  4  0
  4  5  4  0
  3  4  4  0
  2  3  4  0
  1  2  1  0
M  END