Chlordane
  SciTegic12150910513D

 18 20  0  0  0  0            999 V2000
    1.6807    4.1859   -0.4517 Cl  0  0  0  0  0  0  0  0  0  1  0  0
   -0.0347    4.5269   -0.7070 C   0  0  0  0  0  0  0  0  0  2  0  0
   -0.8875    3.7962    0.3892 C   0  0  0  0  0  0  0  0  0  3  0  0
   -0.3819    2.3633    0.1600 C   0  0  0  0  0  0  0  0  0  4  0  0
   -0.2695    2.2816   -1.3769 C   0  0  0  0  0  0  0  0  0  5  0  0
   -0.5717    3.7414   -1.9211 C   0  0  0  0  0  0  0  0  0  6  0  0
   -2.2509    4.2434   -1.9849 Cl  0  0  0  0  0  0  0  0  0  7  0  0
   -1.1386    1.0103   -1.7286 C   0  0  1  0  0  0  0  0  0  8  0  0
   -1.5143    0.8245   -3.4430 Cl  0  0  0  0  0  0  0  0  0  9  0  0
   -0.3750   -0.1408   -1.1685 C   0  0  0  0  0  0  0  0  0 10  0  0
   -0.4266   -0.0881    0.1454 C   0  0  0  0  0  0  0  0  0 11  0  0
    0.2995   -1.2193    1.2286 Cl  0  0  0  0  0  0  0  0  0 12  0  0
   -1.2373    1.0890    0.5397 C   0  0  1  0  0  0  0  0  0 13  0  0
   -1.7798    1.0363    2.2184 Cl  0  0  0  0  0  0  0  0  0 14  0  0
   -2.3019    1.0246   -0.6183 C   0  0  0  0  0  0  0  0  0 15  0  0
   -3.5033    2.3087   -0.6257 Cl  0  0  0  0  0  0  0  0  0 16  0  0
   -3.1878   -0.5023   -0.5973 Cl  0  0  0  0  0  0  0  0  0 17  0  0
    0.4362   -1.3517   -2.0936 Cl  0  0  0  0  0  0  0  0  0 18  0  0
 10 18  1  0
 15 17  1  0
 15 16  1  0
 15  8  1  0
 13 15  1  0
 13 14  1  0
 13  4  1  0
 11 13  1  0
 11 12  1  0
 10 11  2  0
  8 10  1  0
  8  9  1  0
  5  8  1  0
  6  7  1  0
  6  2  1  0
  5  6  1  0
  4  5  1  0
  3  4  1  0
  2  3  1  0
  1  2  1  0
M  END