p,p'-DDT
  SciTegic12150910513D

 19 20  0  0  0  0            999 V2000
    3.0764   -0.2813    0.2971 C   0  0  0  0  0  0  0  0  0  1  0  0
    3.9177   -0.7894    1.2840 C   0  0  0  0  0  0  0  0  0  2  0  0
    5.1903   -0.2642    1.4752 C   0  0  0  0  0  0  0  0  0  3  0  0
    5.6406    0.7754    0.6713 C   0  0  0  0  0  0  0  0  0  4  0  0
    4.8167    1.2836   -0.3246 C   0  0  0  0  0  0  0  0  0  5  0  0
    7.2218    1.4312    0.9063 Cl  0  0  0  0  0  0  0  0  0  6  0  0
    3.5451    0.7538   -0.5111 C   0  0  0  0  0  0  0  0  0  7  0  0
    1.6544   -0.8778    0.0519 C   0  0  0  0  0  0  0  0  0  8  0  0
    0.5371    0.2048    0.2086 C   0  0  0  0  0  0  0  0  0  9  0  0
    0.8169    1.4667    0.7284 C   0  0  0  0  0  0  0  0  0 10  0  0
   -0.1841    2.4212    0.8686 C   0  0  0  0  0  0  0  0  0 11  0  0
   -1.4855    2.1218    0.4881 C   0  0  0  0  0  0  0  0  0 12  0  0
   -1.7795    0.8672   -0.0303 C   0  0  0  0  0  0  0  0  0 13  0  0
   -2.7336    3.3042    0.6592 Cl  0  0  0  0  0  0  0  0  0 14  0  0
   -0.7729   -0.0812   -0.1661 C   0  0  0  0  0  0  0  0  0 15  0  0
    1.3399   -2.1867    0.9075 C   0  0  0  0  0  0  0  0  0 16  0  0
    1.2912   -1.7919    2.6348 Cl  0  0  0  0  0  0  0  0  0 17  0  0
    2.5735   -3.4271    0.6106 Cl  0  0  0  0  0  0  0  0  0 18  0  0
   -0.2119   -2.9201    0.4652 Cl  0  0  0  0  0  0  0  0  0 19  0  0
 16 19  1  0
 16 18  1  0
 16 17  1  0
  8 16  1  0
 15 13  4  0
  9 15  4  0
 12 14  1  0
 12 13  4  0
 11 12  4  0
 10 11  4  0
  9 10  4  0
  8  9  1  0
  1  8  1  0
  7  5  4  0
  1  7  4  0
  4  6  1  0
  4  5  4  0
  3  4  4  0
  2  3  4  0
  1  2  4  0
M  END