./000095-14-7.hin
 OpenBabel10051109203D

 14 15  0  0  0  0  0  0  0  0999 V2000
   -1.8094   -0.5495    0.0000 C   0  0  0  0  0  0  0  0  0  0  0  0
    0.5630   -0.5860    0.0000 C   0  0  0  0  0  0  0  0  0  0  0  0
    0.5841    0.8652   -0.0000 C   0  0  0  0  0  0  0  0  0  0  0  0
   -0.6144    1.5841   -0.0000 C   0  0  0  0  0  0  0  0  0  0  0  0
   -1.7977    0.8585    0.0000 C   0  0  0  0  0  0  0  0  0  0  0  0
   -0.6404   -1.2979    0.0000 C   0  0  0  0  0  0  0  0  0  0  0  0
    1.9243   -0.9276    0.0000 N   0  0  0  0  0  0  0  0  0  0  0  0
    1.9613    1.2415   -0.0000 N   0  0  0  0  0  0  0  0  0  0  0  0
    2.6728    0.1975    0.0000 N   0  0  0  0  0  0  0  0  0  0  0  0
   -2.7794   -1.0710    0.0000 H   0  0  0  0  0  0  0  0  0  0  0  0
   -0.6111    2.6835   -0.0000 H   0  0  0  0  0  0  0  0  0  0  0  0
   -2.7591    1.3947   -0.0000 H   0  0  0  0  0  0  0  0  0  0  0  0
   -0.6592   -2.3952    0.0000 H   0  0  0  0  0  0  0  0  0  0  0  0
    2.3283   -1.8317    0.0000 H   0  0  0  0  0  0  0  0  0  0  0  0
  1  5  1  0  0  0  0
  1  6  2  0  0  0  0
  1 10  1  0  0  0  0
  2  3  2  0  0  0  0
  2  6  1  0  0  0  0
  2  7  1  0  0  0  0
  3  4  1  0  0  0  0
  3  8  1  0  0  0  0
  4  5  2  0  0  0  0
  4 11  1  0  0  0  0
  5 12  1  0  0  0  0
  6 13  1  0  0  0  0
  7  9  1  0  0  0  0
  7 14  1  0  0  0  0
  8  9  2  0  0  0  0
M  END
