./000134-58-7.hin
 OpenBabel10051109203D

 15 16  0  0  0  0  0  0  0  0999 V2000
    1.1770   -0.5472    0.0000 C   0  0  0  0  0  0  0  0  0  0  0  0
   -0.0249   -1.3490   -0.0000 C   0  0  0  0  0  0  0  0  0  0  0  0
   -1.3123   -0.7015    0.0000 C   0  0  0  0  0  0  0  0  0  0  0  0
   -1.2273    0.7236    0.0000 N   0  0  0  0  0  0  0  0  0  0  0  0
   -0.0021    1.4208   -0.0000 C   0  0  0  0  0  0  0  0  0  0  0  0
    1.2312    0.8265    0.0000 N   0  0  0  0  0  0  0  0  0  0  0  0
   -0.0442    2.8065   -0.0001 N   0  0  0  0  0  0  0  0  0  0  0  0
   -2.4421   -1.2059   -0.0000 O   0  0  0  0  0  0  0  0  0  0  0  0
    0.3726   -2.6998   -0.0000 N   0  0  0  0  0  0  0  0  0  0  0  0
    1.6399   -2.7472   -0.0000 N   0  0  0  0  0  0  0  0  0  0  0  0
    2.1947   -1.5051    0.0000 N   0  0  0  0  0  0  0  0  0  0  0  0
   -2.0904    1.2224   -0.0000 H   0  0  0  0  0  0  0  0  0  0  0  0
   -0.9042    3.2915    0.0001 H   0  0  0  0  0  0  0  0  0  0  0  0
    0.8053    3.3165    0.0000 H   0  0  0  0  0  0  0  0  0  0  0  0
    3.1757   -1.3572    0.0000 H   0  0  0  0  0  0  0  0  0  0  0  0
  1  2  2  0  0  0  0
  1  6  1  0  0  0  0
  1 11  1  0  0  0  0
  2  3  1  0  0  0  0
  2  9  1  0  0  0  0
  3  4  1  0  0  0  0
  3  8  2  0  0  0  0
  4  5  1  0  0  0  0
  4 12  1  0  0  0  0
  5  6  2  0  0  0  0
  5  7  1  0  0  0  0
  7 13  1  0  0  0  0
  7 14  1  0  0  0  0
  9 10  2  0  0  0  0
 10 11  1  0  0  0  0
 11 15  1  0  0  0  0
M  END
