./000584-13-4.hin
 OpenBabel10051109203D

 10 10  0  0  0  0  0  0  0  0999 V2000
   -2.1166   -0.0595    0.1678 N   0  0  0  0  0  0  0  0  0  0  0  0
   -0.9619    0.6404    0.0797 N   0  0  0  0  0  0  0  0  0  0  0  0
   -0.8606    2.0413   -0.1158 C   0  0  0  0  0  0  0  0  0  0  0  0
    0.4531    2.3722   -0.1510 N   0  0  0  0  0  0  0  0  0  0  0  0
    1.1944    1.2841    0.0079 N   0  0  0  0  0  0  0  0  0  0  0  0
    0.3899    0.2052    0.1522 C   0  0  0  0  0  0  0  0  0  0  0  0
   -2.1489   -0.5369    1.0626 H   0  0  0  0  0  0  0  0  0  0  0  0
   -2.1351   -0.7642   -0.5622 H   0  0  0  0  0  0  0  0  0  0  0  0
   -1.7261    2.7024   -0.2159 H   0  0  0  0  0  0  0  0  0  0  0  0
    0.6929   -0.8334    0.3005 H   0  0  0  0  0  0  0  0  0  0  0  0
  1  2  1  0  0  0  0
  1  7  1  0  0  0  0
  1  8  1  0  0  0  0
  2  3  1  0  0  0  0
  2  6  1  0  0  0  0
  3  4  2  0  0  0  0
  3  9  1  0  0  0  0
  4  5  1  0  0  0  0
  5  6  2  0  0  0  0
  6 10  1  0  0  0  0
M  END
