./000932-64-9.hin
 OpenBabel10051109203D

 11 11  0  0  0  0  0  0  0  0999 V2000
   -0.2354   -0.4647    0.0989 N   0  0  0  0  0  0  0  0  0  0  0  0
    1.1496   -0.8969    0.0989 C   0  0  0  0  0  0  0  0  0  0  0  0
    1.9690    0.2946    0.0989 N   0  0  0  0  0  0  0  0  0  0  0  0
    1.1483    1.3770    0.0988 N   0  0  0  0  0  0  0  0  0  0  0  0
   -0.1682    0.8817    0.0989 C   0  0  0  0  0  0  0  0  0  0  0  0
    1.6314   -2.0323    0.0989 O   0  0  0  0  0  0  0  0  0  0  0  0
   -1.3500    1.8263    0.0989 N   0  3  0  0  0  0  0  0  0  0  0  0
   -1.1068    3.0010    0.0989 O   0  0  0  0  0  0  0  0  0  0  0  0
   -2.4473    1.3680    0.0989 O   0  5  0  0  0  0  0  0  0  0  0  0
    2.9529    0.4048    0.0988 H   0  0  0  0  0  0  0  0  0  0  0  0
    1.4721    2.3155    0.0989 H   0  0  0  0  0  0  0  0  0  0  0  0
  1  2  1  0  0  0  0
  1  5  2  0  0  0  0
  2  3  1  0  0  0  0
  2  6  2  0  0  0  0
  3  4  1  0  0  0  0
  3 10  1  0  0  0  0
  4  5  1  0  0  0  0
  4 11  1  0  0  0  0
  5  7  1  0  0  0  0
  7  8  2  0  0  0  0
  7  9  1  0  0  0  0
M  CHG   2   7   1   9  -1
M  END
