./000938-56-7.hin
 OpenBabel10051109203D

 21 22  0  0  0  0  0  0  0  0999 V2000
   -2.7077   -1.6860    0.1644 C   0  0  0  0  0  0  0  0  0  0  0  0
   -2.6869   -0.2787    0.1612 C   0  0  0  0  0  0  0  0  0  0  0  0
   -1.5022    0.4427    0.2198 C   0  0  0  0  0  0  0  0  0  0  0  0
   -0.3149   -0.2937    0.2789 C   0  0  0  0  0  0  0  0  0  0  0  0
   -0.3298   -1.7434    0.2828 C   0  0  0  0  0  0  0  0  0  0  0  0
   -1.5414   -2.4367    0.2270 C   0  0  0  0  0  0  0  0  0  0  0  0
    1.0357   -2.1538    0.3596 N   0  0  0  0  0  0  0  0  0  0  0  0
    1.7752   -1.1342    0.3944 N   0  0  0  0  0  0  0  0  0  0  0  0
    1.0553    0.0252    0.3768 N   0  0  0  0  0  0  0  0  0  0  0  0
    1.6237    1.3486    0.2848 C   0  0  0  0  0  0  0  0  0  0  0  0
    2.3257    1.6284   -1.0548 C   0  0  0  0  0  0  0  0  0  0  0  0
    2.6848    3.0000   -1.0042 O   0  0  0  0  0  0  0  0  0  0  0  0
   -3.6793   -2.2011    0.1173 H   0  0  0  0  0  0  0  0  0  0  0  0
   -3.6432    0.2653    0.1110 H   0  0  0  0  0  0  0  0  0  0  0  0
   -1.4972    1.5407    0.2206 H   0  0  0  0  0  0  0  0  0  0  0  0
   -1.5618   -3.5358    0.2343 H   0  0  0  0  0  0  0  0  0  0  0  0
    0.7904    2.0930    0.4263 H   0  0  0  0  0  0  0  0  0  0  0  0
    2.3719    1.4846    1.1171 H   0  0  0  0  0  0  0  0  0  0  0  0
    3.2377    0.9849   -1.1669 H   0  0  0  0  0  0  0  0  0  0  0  0
    1.6359    1.4495   -1.9221 H   0  0  0  0  0  0  0  0  0  0  0  0
    3.2386    3.1665   -1.7758 H   0  0  0  0  0  0  0  0  0  0  0  0
  1  2  2  0  0  0  0
  1  6  1  0  0  0  0
  1 13  1  0  0  0  0
  2  3  1  0  0  0  0
  2 14  1  0  0  0  0
  3  4  2  0  0  0  0
  3 15  1  0  0  0  0
  4  5  1  0  0  0  0
  4  9  1  0  0  0  0
  5  6  2  0  0  0  0
  5  7  1  0  0  0  0
  6 16  1  0  0  0  0
  7  8  2  0  0  0  0
  8  9  1  0  0  0  0
  9 10  1  0  0  0  0
 10 11  1  0  0  0  0
 10 17  1  0  0  0  0
 10 18  1  0  0  0  0
 11 12  1  0  0  0  0
 11 19  1  0  0  0  0
 11 20  1  0  0  0  0
 12 21  1  0  0  0  0
M  END
