./000939-07-1.hin
 OpenBabel10051109203D

 19 20  0  0  0  0  0  0  0  0999 V2000
    1.7414   -0.0972   -0.2952 N   0  0  0  0  0  0  0  0  0  0  0  0
    0.5172    0.3228    0.0046 C   0  0  0  0  0  0  0  0  0  0  0  0
    0.4490    1.7608    0.2999 N   0  0  0  0  0  0  0  0  0  0  0  0
    1.7689    2.2030    0.3523 N   0  0  0  0  0  0  0  0  0  0  0  0
    2.5989    1.0699   -0.1321 C   0  0  0  0  0  0  0  0  0  0  0  0
    3.8141    1.1468   -0.3137 O   0  0  0  0  0  0  0  0  0  0  0  0
   -0.7012   -0.4901    0.0123 C   0  0  0  0  0  0  0  0  0  0  0  0
   -0.6016   -1.8793    0.1805 C   0  0  0  0  0  0  0  0  0  0  0  0
   -1.7559   -2.6611    0.1890 C   0  0  0  0  0  0  0  0  0  0  0  0
   -3.0074   -2.0681    0.0255 C   0  0  0  0  0  0  0  0  0  0  0  0
   -3.1068   -0.6872   -0.1491 C   0  0  0  0  0  0  0  0  0  0  0  0
   -1.9600    0.1043   -0.1574 C   0  0  0  0  0  0  0  0  0  0  0  0
   -0.0014    1.9376    1.1873 H   0  0  0  0  0  0  0  0  0  0  0  0
    1.8741    3.0248   -0.2240 H   0  0  0  0  0  0  0  0  0  0  0  0
    0.3845   -2.3558    0.3035 H   0  0  0  0  0  0  0  0  0  0  0  0
   -1.6748   -3.7506    0.3221 H   0  0  0  0  0  0  0  0  0  0  0  0
   -3.9163   -2.6885    0.0311 H   0  0  0  0  0  0  0  0  0  0  0  0
   -4.0934   -0.2192   -0.2845 H   0  0  0  0  0  0  0  0  0  0  0  0
   -2.0544    1.1901   -0.3124 H   0  0  0  0  0  0  0  0  0  0  0  0
  1  2  2  0  0  0  0
  1  5  1  0  0  0  0
  2  3  1  0  0  0  0
  2  7  1  0  0  0  0
  3  4  1  0  0  0  0
  3 13  1  0  0  0  0
  4  5  1  0  0  0  0
  4 14  1  0  0  0  0
  5  6  2  0  0  0  0
  7  8  2  0  0  0  0
  7 12  1  0  0  0  0
  8  9  1  0  0  0  0
  8 15  1  0  0  0  0
  9 10  2  0  0  0  0
  9 16  1  0  0  0  0
 10 11  1  0  0  0  0
 10 17  1  0  0  0  0
 11 12  2  0  0  0  0
 11 18  1  0  0  0  0
 12 19  1  0  0  0  0
M  END
