./000939-08-2.hin
 OpenBabel10051109203D

 18 19  0  0  0  0  0  0  0  0999 V2000
   -0.3730   -1.8572    0.1902 N   0  0  0  0  0  0  0  0  0  0  0  0
   -1.6925   -2.2986    0.2634 N   0  0  0  0  0  0  0  0  0  0  0  0
   -2.5337   -1.1444   -0.1419 C   0  0  0  0  0  0  0  0  0  0  0  0
   -1.6764    0.0287   -0.2784 N   0  0  0  0  0  0  0  0  0  0  0  0
   -0.4469   -0.4082   -0.0362 C   0  0  0  0  0  0  0  0  0  0  0  0
    0.7739    0.4043   -0.0367 C   0  0  0  0  0  0  0  0  0  0  0  0
    0.6873    1.7968    0.1077 C   0  0  0  0  0  0  0  0  0  0  0  0
    1.8816    2.5424    0.1018 C   0  0  0  0  0  0  0  0  0  0  0  0
    3.1032    1.9941   -0.0347 N   0  0  0  0  0  0  0  0  0  0  0  0
    3.1673    0.6563   -0.1785 C   0  0  0  0  0  0  0  0  0  0  0  0
    2.0385   -0.1829   -0.1878 C   0  0  0  0  0  0  0  0  0  0  0  0
   -3.7542   -1.2073   -0.2876 O   0  0  0  0  0  0  0  0  0  0  0  0
    0.1044   -2.0777    1.0538 H   0  0  0  0  0  0  0  0  0  0  0  0
   -1.8186   -3.0954   -0.3434 H   0  0  0  0  0  0  0  0  0  0  0  0
   -0.2825    2.3037    0.2193 H   0  0  0  0  0  0  0  0  0  0  0  0
    1.8556    3.6423    0.2096 H   0  0  0  0  0  0  0  0  0  0  0  0
    4.1815    0.2329   -0.2955 H   0  0  0  0  0  0  0  0  0  0  0  0
    2.1647   -1.2655   -0.3250 H   0  0  0  0  0  0  0  0  0  0  0  0
  1  2  1  0  0  0  0
  1  5  1  0  0  0  0
  1 13  1  0  0  0  0
  2  3  1  0  0  0  0
  2 14  1  0  0  0  0
  3  4  1  0  0  0  0
  3 12  2  0  0  0  0
  4  5  2  0  0  0  0
  5  6  1  0  0  0  0
  6  7  2  0  0  0  0
  6 11  1  0  0  0  0
  7  8  1  0  0  0  0
  7 15  1  0  0  0  0
  8  9  2  0  0  0  0
  8 16  1  0  0  0  0
  9 10  1  0  0  0  0
 10 11  2  0  0  0  0
 10 17  1  0  0  0  0
 11 18  1  0  0  0  0
M  END
