./000947-85-3.hin
 OpenBabel10051109203D

 28 29  0  0  0  0  0  0  0  0999 V2000
   -0.1670    0.3406    0.1621 C   0  0  0  0  0  0  0  0  0  0  0  0
   -0.1856    1.6784    0.3331 N   0  0  0  0  0  0  0  0  0  0  0  0
    1.1046    2.1077    0.4214 N   0  0  0  0  0  0  0  0  0  0  0  0
    2.0099    1.0055    0.1554 C   0  0  0  0  0  0  0  0  0  0  0  0
    3.2493    1.0373    0.1179 O   0  0  0  0  0  0  0  0  0  0  0  0
    1.1689   -0.1459    0.0778 N   0  0  0  0  0  0  0  0  0  0  0  0
    1.5994   -1.4284   -0.4012 C   0  0  0  0  0  0  0  0  0  0  0  0
    2.3461   -2.2579    0.6342 C   0  0  0  0  0  0  0  0  0  0  0  0
    1.4827    3.4495    0.0362 C   0  0  0  0  0  0  0  0  0  0  0  0
   -1.3557   -0.5124    0.0958 C   0  0  0  0  0  0  0  0  0  0  0  0
   -2.4713   -0.0842   -0.6360 C   0  0  0  0  0  0  0  0  0  0  0  0
   -3.6131   -0.8828   -0.6884 C   0  0  0  0  0  0  0  0  0  0  0  0
   -3.6488   -2.1025   -0.0131 C   0  0  0  0  0  0  0  0  0  0  0  0
   -2.5404   -2.5256    0.7211 C   0  0  0  0  0  0  0  0  0  0  0  0
   -1.3946   -1.7343    0.7796 C   0  0  0  0  0  0  0  0  0  0  0  0
    0.6899   -1.9965   -0.7517 H   0  0  0  0  0  0  0  0  0  0  0  0
    2.2823   -1.2641   -1.2862 H   0  0  0  0  0  0  0  0  0  0  0  0
    2.6593   -3.2179    0.1578 H   0  0  0  0  0  0  0  0  0  0  0  0
    3.2568   -1.7183    0.9916 H   0  0  0  0  0  0  0  0  0  0  0  0
    1.7004   -2.4874    1.5150 H   0  0  0  0  0  0  0  0  0  0  0  0
    0.9170    4.1790    0.6735 H   0  0  0  0  0  0  0  0  0  0  0  0
    2.5847    3.5515    0.2234 H   0  0  0  0  0  0  0  0  0  0  0  0
    1.2656    3.6615   -1.0448 H   0  0  0  0  0  0  0  0  0  0  0  0
   -2.4491    0.8822   -1.1627 H   0  0  0  0  0  0  0  0  0  0  0  0
   -4.4885   -0.5452   -1.2628 H   0  0  0  0  0  0  0  0  0  0  0  0
   -4.5519   -2.7293   -0.0559 H   0  0  0  0  0  0  0  0  0  0  0  0
   -2.5702   -3.4839    1.2604 H   0  0  0  0  0  0  0  0  0  0  0  0
   -0.5265   -2.0644    1.3714 H   0  0  0  0  0  0  0  0  0  0  0  0
  1  2  2  0  0  0  0
  1  6  1  0  0  0  0
  1 10  1  0  0  0  0
  2  3  1  0  0  0  0
  3  4  1  0  0  0  0
  3  9  1  0  0  0  0
  4  5  2  0  0  0  0
  4  6  1  0  0  0  0
  6  7  1  0  0  0  0
  7  8  1  0  0  0  0
  7 16  1  0  0  0  0
  7 17  1  0  0  0  0
  8 18  1  0  0  0  0
  8 19  1  0  0  0  0
  8 20  1  0  0  0  0
  9 21  1  0  0  0  0
  9 22  1  0  0  0  0
  9 23  1  0  0  0  0
 10 11  2  0  0  0  0
 10 15  1  0  0  0  0
 11 12  1  0  0  0  0
 11 24  1  0  0  0  0
 12 13  2  0  0  0  0
 12 25  1  0  0  0  0
 13 14  1  0  0  0  0
 13 26  1  0  0  0  0
 14 15  2  0  0  0  0
 14 27  1  0  0  0  0
 15 28  1  0  0  0  0
M  END
