./001123-54-2.hin
 OpenBabel10051109203D

 14 15  0  0  0  0  0  0  0  0999 V2000
   -1.5847   -1.4412   -0.0000 N   0  0  0  0  0  0  0  0  0  0  0  0
   -0.3747   -2.0745   -0.0000 C   0  0  0  0  0  0  0  0  0  0  0  0
    0.8761   -1.5631   -0.0000 N   0  0  0  0  0  0  0  0  0  0  0  0
    0.8947   -0.2014   -0.0000 C   0  0  0  0  0  0  0  0  0  0  0  0
    1.9740    0.7494   -0.0000 N   0  0  0  0  0  0  0  0  0  0  0  0
    1.4846    1.9163   -0.0000 N   0  0  0  0  0  0  0  0  0  0  0  0
    0.1396    1.9188   -0.0000 N   0  0  0  0  0  0  0  0  0  0  0  0
   -0.3248    0.5990   -0.0000 C   0  0  0  0  0  0  0  0  0  0  0  0
   -1.5898   -0.0725   -0.0000 C   0  0  0  0  0  0  0  0  0  0  0  0
   -2.7679    0.6346   -0.0000 N   0  0  0  0  0  0  0  0  0  0  0  0
   -0.4400   -3.1849   -0.0000 H   0  0  0  0  0  0  0  0  0  0  0  0
   -0.3880    2.7571   -0.0000 H   0  0  0  0  0  0  0  0  0  0  0  0
   -2.7451    1.6196   -0.0000 H   0  0  0  0  0  0  0  0  0  0  0  0
   -3.6378    0.1630   -0.0000 H   0  0  0  0  0  0  0  0  0  0  0  0
  1  2  2  0  0  0  0
  1  9  1  0  0  0  0
  2  3  1  0  0  0  0
  2 11  1  0  0  0  0
  3  4  2  0  0  0  0
  4  5  1  0  0  0  0
  4  8  1  0  0  0  0
  5  6  2  0  0  0  0
  6  7  1  0  0  0  0
  7  8  1  0  0  0  0
  7 12  1  0  0  0  0
  8  9  2  0  0  0  0
  9 10  1  0  0  0  0
 10 13  1  0  0  0  0
 10 14  1  0  0  0  0
M  END
