./002440-22-4.hin
 OpenBabel10051109203D

 28 30  0  0  0  0  0  0  0  0999 V2000
    0.3984    0.1584   -0.0000 N   0  0  0  0  0  0  0  0  0  0  0  0
   -0.7609   -0.7099   -0.0000 C   0  0  0  0  0  0  0  0  0  0  0  0
   -0.6614   -2.1222    0.0000 C   0  0  0  0  0  0  0  0  0  0  0  0
   -1.8417   -2.9012    0.0000 C   0  0  0  0  0  0  0  0  0  0  0  0
   -3.0859   -2.3013   -0.0000 C   0  0  0  0  0  0  0  0  0  0  0  0
   -3.1975   -0.9022   -0.0000 C   0  0  0  0  0  0  0  0  0  0  0  0
   -2.0477   -0.1202   -0.0000 C   0  0  0  0  0  0  0  0  0  0  0  0
   -4.5386   -0.2726   -0.0000 C   0  0  0  0  0  0  0  0  0  0  0  0
    0.4742   -2.8845    0.0000 O   0  0  0  0  0  0  0  0  0  0  0  0
    0.2809    1.4996    0.0000 N   0  0  0  0  0  0  0  0  0  0  0  0
    1.5703    1.9696   -0.0000 C   0  0  0  0  0  0  0  0  0  0  0  0
    3.4895    3.3952   -0.0000 C   0  0  0  0  0  0  0  0  0  0  0  0
    4.3522    2.2573   -0.0000 C   0  0  0  0  0  0  0  0  0  0  0  0
    3.8713    0.9761   -0.0000 C   0  0  0  0  0  0  0  0  0  0  0  0
    2.4619    0.7951   -0.0000 C   0  0  0  0  0  0  0  0  0  0  0  0
    1.6586   -0.3154   -0.0000 N   0  0  0  0  0  0  0  0  0  0  0  0
    2.1262    3.2774   -0.0000 C   0  0  0  0  0  0  0  0  0  0  0  0
   -1.7347   -3.9968    0.0000 H   0  0  0  0  0  0  0  0  0  0  0  0
   -3.9965   -2.9200   -0.0000 H   0  0  0  0  0  0  0  0  0  0  0  0
   -2.1640    0.9771   -0.0000 H   0  0  0  0  0  0  0  0  0  0  0  0
   -4.4673    0.8426    0.0000 H   0  0  0  0  0  0  0  0  0  0  0  0
   -5.1134   -0.5888   -0.9063 H   0  0  0  0  0  0  0  0  0  0  0  0
   -5.1134   -0.5888    0.9063 H   0  0  0  0  0  0  0  0  0  0  0  0
    1.2709   -2.3328    0.0000 H   0  0  0  0  0  0  0  0  0  0  0  0
    3.9555    4.3929   -0.0000 H   0  0  0  0  0  0  0  0  0  0  0  0
    5.4389    2.4365   -0.0000 H   0  0  0  0  0  0  0  0  0  0  0  0
    4.5346    0.1001   -0.0000 H   0  0  0  0  0  0  0  0  0  0  0  0
    1.4612    4.1524   -0.0000 H   0  0  0  0  0  0  0  0  0  0  0  0
  1  2  1  0  0  0  0
  1 10  1  0  0  0  0
  1 16  1  0  0  0  0
  2  3  2  0  0  0  0
  2  7  1  0  0  0  0
  3  4  1  0  0  0  0
  3  9  1  0  0  0  0
  4  5  2  0  0  0  0
  4 18  1  0  0  0  0
  5  6  1  0  0  0  0
  5 19  1  0  0  0  0
  6  7  2  0  0  0  0
  6  8  1  0  0  0  0
  7 20  1  0  0  0  0
  8 21  1  0  0  0  0
  8 22  1  0  0  0  0
  8 23  1  0  0  0  0
  9 24  1  0  0  0  0
 10 11  2  0  0  0  0
 11 15  1  0  0  0  0
 11 17  1  0  0  0  0
 12 13  1  0  0  0  0
 12 17  2  0  0  0  0
 12 25  1  0  0  0  0
 13 14  2  0  0  0  0
 13 26  1  0  0  0  0
 14 15  1  0  0  0  0
 14 27  1  0  0  0  0
 15 16  2  0  0  0  0
 17 28  1  0  0  0  0
M  END
