./002683-90-1.hin
 OpenBabel10051109203D

 13 14  0  0  0  0  0  0  0  0999 V2000
   -0.4845   -0.5593    0.0011 C   0  0  0  0  0  0  0  0  0  0  0  0
   -0.4581    0.9277   -0.0001 C   0  0  0  0  0  0  0  0  0  0  0  0
   -1.7666    1.3428    0.0014 N   0  0  0  0  0  0  0  0  0  0  0  0
   -2.4664    0.1961    0.0032 N   0  0  0  0  0  0  0  0  0  0  0  0
   -1.7885   -0.9491    0.0031 N   0  0  0  0  0  0  0  0  0  0  0  0
    0.7415    1.6454   -0.0021 N   0  0  0  0  0  0  0  0  0  0  0  0
    1.8276    0.9030   -0.0026 C   0  0  0  0  0  0  0  0  0  0  0  0
    1.9157   -0.4870   -0.0014 N   0  0  0  0  0  0  0  0  0  0  0  0
    0.7690   -1.3119    0.0001 C   0  0  0  0  0  0  0  0  0  0  0  0
    0.8927   -2.5437    0.0004 O   0  0  0  0  0  0  0  0  0  0  0  0
   -3.4705    0.2089    0.0048 H   0  0  0  0  0  0  0  0  0  0  0  0
    2.8010    1.4432   -0.0041 H   0  0  0  0  0  0  0  0  0  0  0  0
    2.8090   -0.9261   -0.0016 H   0  0  0  0  0  0  0  0  0  0  0  0
  1  2  1  0  0  0  0
  1  5  2  0  0  0  0
  1  9  1  0  0  0  0
  2  3  2  0  0  0  0
  2  6  1  0  0  0  0
  3  4  1  0  0  0  0
  4  5  1  0  0  0  0
  4 11  1  0  0  0  0
  6  7  2  0  0  0  0
  7  8  1  0  0  0  0
  7 12  1  0  0  0  0
  8  9  1  0  0  0  0
  8 13  1  0  0  0  0
  9 10  2  0  0  0  0
M  END
