./003232-84-6.hin
 OpenBabel10051109203D

 10 10  0  0  0  0  0  0  0  0999 V2000
   -0.9197   -0.5935   -0.0000 N   0  0  0  0  0  0  0  0  0  0  0  0
   -0.9068    0.8277   -0.0000 C   0  0  0  0  0  0  0  0  0  0  0  0
    0.4604    1.2027   -0.0000 N   0  0  0  0  0  0  0  0  0  0  0  0
    1.2434    0.0789    0.0000 N   0  0  0  0  0  0  0  0  0  0  0  0
    0.4180   -1.0737    0.0000 C   0  0  0  0  0  0  0  0  0  0  0  0
    0.8064   -2.2505    0.0000 O   0  0  0  0  0  0  0  0  0  0  0  0
   -1.8761    1.5998   -0.0000 O   0  0  0  0  0  0  0  0  0  0  0  0
   -1.7283   -1.1568   -0.0000 H   0  0  0  0  0  0  0  0  0  0  0  0
    0.8480    2.1116    0.0000 H   0  0  0  0  0  0  0  0  0  0  0  0
    2.2303    0.1275   -0.0000 H   0  0  0  0  0  0  0  0  0  0  0  0
  1  2  1  0  0  0  0
  1  5  1  0  0  0  0
  1  8  1  0  0  0  0
  2  3  1  0  0  0  0
  2  7  2  0  0  0  0
  3  4  1  0  0  0  0
  3  9  1  0  0  0  0
  4  5  1  0  0  0  0
  4 10  1  0  0  0  0
  5  6  2  0  0  0  0
M  END
