./003357-42-4.hin
 OpenBabel10051109203D

 18 19  0  0  0  0  0  0  0  0999 V2000
   -2.5977   -1.9083    0.0000 C   0  0  0  0  0  0  0  0  0  0  0  0
   -2.7410   -0.5214    0.0000 C   0  0  0  0  0  0  0  0  0  0  0  0
   -1.6168    0.3027    0.0000 C   0  0  0  0  0  0  0  0  0  0  0  0
   -0.3317   -0.2623    0.0000 C   0  0  0  0  0  0  0  0  0  0  0  0
   -0.1925   -1.6577   -0.0000 C   0  0  0  0  0  0  0  0  0  0  0  0
   -1.3225   -2.4731    0.0000 C   0  0  0  0  0  0  0  0  0  0  0  0
    0.8324    0.6174   -0.0000 C   0  0  0  0  0  0  0  0  0  0  0  0
    0.8432    1.9821   -0.0000 N   0  0  0  0  0  0  0  0  0  0  0  0
    2.2045    2.3082   -0.0000 C   0  0  0  0  0  0  0  0  0  0  0  0
    3.0147    1.2077   -0.0000 N   0  0  0  0  0  0  0  0  0  0  0  0
    2.1770    0.1733   -0.0000 N   0  0  0  0  0  0  0  0  0  0  0  0
   -3.4871   -2.5557    0.0000 H   0  0  0  0  0  0  0  0  0  0  0  0
   -3.7452   -0.0714    0.0000 H   0  0  0  0  0  0  0  0  0  0  0  0
   -1.7419    1.3973    0.0000 H   0  0  0  0  0  0  0  0  0  0  0  0
    0.7992   -2.1322   -0.0000 H   0  0  0  0  0  0  0  0  0  0  0  0
   -1.2053   -3.5670    0.0000 H   0  0  0  0  0  0  0  0  0  0  0  0
    2.5682    3.3406   -0.0000 H   0  0  0  0  0  0  0  0  0  0  0  0
    2.5142   -0.7597   -0.0000 H   0  0  0  0  0  0  0  0  0  0  0  0
  1  2  2  0  0  0  0
  1  6  1  0  0  0  0
  1 12  1  0  0  0  0
  2  3  1  0  0  0  0
  2 13  1  0  0  0  0
  3  4  2  0  0  0  0
  3 14  1  0  0  0  0
  4  5  1  0  0  0  0
  4  7  1  0  0  0  0
  5  6  2  0  0  0  0
  5 15  1  0  0  0  0
  6 16  1  0  0  0  0
  7  8  2  0  0  0  0
  7 11  1  0  0  0  0
  8  9  1  0  0  0  0
  9 10  2  0  0  0  0
  9 17  1  0  0  0  0
 10 11  1  0  0  0  0
 11 18  1  0  0  0  0
M  END
