./003652-22-0.hin
 OpenBabel10051109203D

 24 25  0  0  0  0  0  0  0  0999 V2000
   -4.0327   -3.2513    0.0000 C   0  0  0  0  0  0  0  0  0  0  0  0
   -2.8025   -2.3908    0.0000 C   0  0  0  0  0  0  0  0  0  0  0  0
   -3.3864   -0.7196    0.0000 S   0  0  0  0  0  0  0  0  0  0  0  0
   -1.9744    0.2064    0.0000 C   0  0  0  0  0  0  0  0  0  0  0  0
   -1.9770    1.5850   -0.0000 N   0  0  0  0  0  0  0  0  0  0  0  0
   -0.6927    1.9296   -0.0000 N   0  0  0  0  0  0  0  0  0  0  0  0
    0.1362    0.7870    0.0000 C   0  0  0  0  0  0  0  0  0  0  0  0
   -0.6651   -0.3152    0.0000 N   0  0  0  0  0  0  0  0  0  0  0  0
    1.5949    0.8187    0.0000 C   0  0  0  0  0  0  0  0  0  0  0  0
    2.3192   -0.3833   -0.0000 C   0  0  0  0  0  0  0  0  0  0  0  0
    3.7244   -0.3182   -0.0000 C   0  0  0  0  0  0  0  0  0  0  0  0
    4.4203    0.8347    0.0000 N   0  0  0  0  0  0  0  0  0  0  0  0
    3.7113    1.9796    0.0000 C   0  0  0  0  0  0  0  0  0  0  0  0
    2.3059    2.0280    0.0000 C   0  0  0  0  0  0  0  0  0  0  0  0
   -3.7394   -4.3303    0.0000 H   0  0  0  0  0  0  0  0  0  0  0  0
   -4.6568   -3.0584    0.9073 H   0  0  0  0  0  0  0  0  0  0  0  0
   -4.6568   -3.0584   -0.9073 H   0  0  0  0  0  0  0  0  0  0  0  0
   -2.1734   -2.5931    0.9005 H   0  0  0  0  0  0  0  0  0  0  0  0
   -2.1734   -2.5931   -0.9005 H   0  0  0  0  0  0  0  0  0  0  0  0
   -0.4212    2.8847   -0.0000 H   0  0  0  0  0  0  0  0  0  0  0  0
    1.8098   -1.3575   -0.0000 H   0  0  0  0  0  0  0  0  0  0  0  0
    4.3281   -1.2442   -0.0000 H   0  0  0  0  0  0  0  0  0  0  0  0
    4.3043    2.9122    0.0000 H   0  0  0  0  0  0  0  0  0  0  0  0
    1.8044    3.0037    0.0000 H   0  0  0  0  0  0  0  0  0  0  0  0
  1  2  1  0  0  0  0
  1 15  1  0  0  0  0
  1 16  1  0  0  0  0
  1 17  1  0  0  0  0
  2  3  1  0  0  0  0
  2 18  1  0  0  0  0
  2 19  1  0  0  0  0
  3  4  1  0  0  0  0
  4  5  2  0  0  0  0
  4  8  1  0  0  0  0
  5  6  1  0  0  0  0
  6  7  1  0  0  0  0
  6 20  1  0  0  0  0
  7  8  2  0  0  0  0
  7  9  1  0  0  0  0
  9 10  2  0  0  0  0
  9 14  1  0  0  0  0
 10 11  1  0  0  0  0
 10 21  1  0  0  0  0
 11 12  2  0  0  0  0
 11 22  1  0  0  0  0
 12 13  1  0  0  0  0
 13 14  2  0  0  0  0
 13 23  1  0  0  0  0
 14 24  1  0  0  0  0
M  END
