./003683-95-2.hin
 OpenBabel10051109203D

 18 19  0  0  0  0  0  0  0  0999 V2000
   -1.0947   -1.2464   -0.0000 N   0  0  0  0  0  0  0  0  0  0  0  0
   -2.3689   -1.6178   -0.0000 N   0  0  0  0  0  0  0  0  0  0  0  0
   -3.0853   -0.4380   -0.0000 C   0  0  0  0  0  0  0  0  0  0  0  0
   -2.2428    0.6877   -0.0000 N   0  0  0  0  0  0  0  0  0  0  0  0
   -0.9817    0.1582   -0.0000 C   0  0  0  0  0  0  0  0  0  0  0  0
    0.2440    0.9099   -0.0000 C   0  0  0  0  0  0  0  0  0  0  0  0
    1.5593    0.4499    0.0000 C   0  0  0  0  0  0  0  0  0  0  0  0
    2.4817    1.5785    0.0000 C   0  0  0  0  0  0  0  0  0  0  0  0
    1.8719    2.7622   -0.0000 N   0  0  0  0  0  0  0  0  0  0  0  0
    0.2640    2.5908   -0.0000 S   0  0  0  0  0  0  0  0  0  0  0  0
    3.9554    1.4069    0.0000 C   0  0  0  0  0  0  0  0  0  0  0  0
    2.1314   -1.3005    0.0000 Br  0  0  0  0  0  0  0  0  0  0  0  0
   -4.7742   -0.3736   -0.0000 S   0  0  0  0  0  0  0  0  0  0  0  0
    4.2638    0.8343   -0.9104 H   0  0  0  0  0  0  0  0  0  0  0  0
    4.4862    2.3912   -0.0000 H   0  0  0  0  0  0  0  0  0  0  0  0
    4.2638    0.8343    0.9104 H   0  0  0  0  0  0  0  0  0  0  0  0
   -4.9298    0.9433   -0.0000 H   0  0  0  0  0  0  0  0  0  0  0  0
   -0.3566   -1.9181   -0.0000 H   0  0  0  0  0  0  0  0  0  0  0  0
  1  2  1  0  0  0  0
  1  5  1  0  0  0  0
  1 18  1  0  0  0  0
  2  3  2  0  0  0  0
  3  4  1  0  0  0  0
  3 13  1  0  0  0  0
  4  5  2  0  0  0  0
  5  6  1  0  0  0  0
  6  7  2  0  0  0  0
  6 10  1  0  0  0  0
  7  8  1  0  0  0  0
  7 12  1  0  0  0  0
  8  9  2  0  0  0  0
  8 11  1  0  0  0  0
  9 10  1  0  0  0  0
 11 14  1  0  0  0  0
 11 15  1  0  0  0  0
 11 16  1  0  0  0  0
 13 17  1  0  0  0  0
M  END
