./003770-47-6.hin
 OpenBabel10051109203D

 21 22  0  0  0  0  0  0  0  0999 V2000
   -0.6018   -3.5016   -0.0000 C   0  0  0  0  0  0  0  0  0  0  0  0
   -0.6646   -2.0969   -0.0000 C   0  0  0  0  0  0  0  0  0  0  0  0
    0.5381   -1.3743   -0.0000 C   0  0  0  0  0  0  0  0  0  0  0  0
    1.7466   -2.0875   -0.0000 C   0  0  0  0  0  0  0  0  0  0  0  0
    1.6953   -3.4928   -0.0000 C   0  0  0  0  0  0  0  0  0  0  0  0
    0.5496   -4.2006   -0.0000 N   0  0  0  0  0  0  0  0  0  0  0  0
    0.5319    0.0865   -0.0000 C   0  0  0  0  0  0  0  0  0  0  0  0
    1.6600    0.8774   -0.0000 N   0  0  0  0  0  0  0  0  0  0  0  0
    1.2068    2.1261    0.0000 N   0  0  0  0  0  0  0  0  0  0  0  0
   -0.2050    2.1473    0.0000 C   0  0  0  0  0  0  0  0  0  0  0  0
   -0.6499    0.8634    0.0000 N   0  0  0  0  0  0  0  0  0  0  0  0
   -1.1049    3.5764    0.0000 S   0  0  0  0  0  0  0  0  0  0  0  0
   -2.7672    3.0234   -0.0000 C   0  0  0  0  0  0  0  0  0  0  0  0
   -1.5284   -4.1033   -0.0000 H   0  0  0  0  0  0  0  0  0  0  0  0
   -1.6393   -1.5902   -0.0000 H   0  0  0  0  0  0  0  0  0  0  0  0
    2.7180   -1.5748   -0.0000 H   0  0  0  0  0  0  0  0  0  0  0  0
    2.6268   -4.0869   -0.0000 H   0  0  0  0  0  0  0  0  0  0  0  0
   -3.3785    3.9571    0.0000 H   0  0  0  0  0  0  0  0  0  0  0  0
   -3.0128    2.4201   -0.9026 H   0  0  0  0  0  0  0  0  0  0  0  0
   -3.0128    2.4201    0.9025 H   0  0  0  0  0  0  0  0  0  0  0  0
    1.8294    2.9004    0.0000 H   0  0  0  0  0  0  0  0  0  0  0  0
  1  2  2  0  0  0  0
  1  6  1  0  0  0  0
  1 14  1  0  0  0  0
  2  3  1  0  0  0  0
  2 15  1  0  0  0  0
  3  4  2  0  0  0  0
  3  7  1  0  0  0  0
  4  5  1  0  0  0  0
  4 16  1  0  0  0  0
  5  6  2  0  0  0  0
  5 17  1  0  0  0  0
  7  8  2  0  0  0  0
  7 11  1  0  0  0  0
  8  9  1  0  0  0  0
  9 10  1  0  0  0  0
  9 21  1  0  0  0  0
 10 11  2  0  0  0  0
 10 12  1  0  0  0  0
 12 13  1  0  0  0  0
 13 18  1  0  0  0  0
 13 19  1  0  0  0  0
 13 20  1  0  0  0  0
M  END
