./003896-11-5.hin
 OpenBabel10051109203D

 40 42  0  0  0  0  0  0  0  0999 V2000
    1.0808   -1.5442    0.0000 C   0  0  0  0  0  0  0  0  0  0  0  0
    1.5593   -2.8886    0.0000 C   0  0  0  0  0  0  0  0  0  0  0  0
    0.6313   -3.9226   -0.0000 C   0  0  0  0  0  0  0  0  0  0  0  0
   -0.7491   -3.6782   -0.0000 C   0  0  0  0  0  0  0  0  0  0  0  0
   -1.2183   -2.3730   -0.0000 C   0  0  0  0  0  0  0  0  0  0  0  0
   -0.3138   -1.2861   -0.0000 C   0  0  0  0  0  0  0  0  0  0  0  0
   -1.6931   -4.8210   -0.0000 C   0  0  0  0  0  0  0  0  0  0  0  0
   -2.2012    0.2648    0.0000 N   0  0  0  0  0  0  0  0  0  0  0  0
   -0.8716    0.0548   -0.0000 N   0  0  0  0  0  0  0  0  0  0  0  0
   -0.1105    1.1640   -0.0000 N   0  0  0  0  0  0  0  0  0  0  0  0
   -0.9953    2.2122   -0.0000 C   0  0  0  0  0  0  0  0  0  0  0  0
   -2.3481    1.6298    0.0000 C   0  0  0  0  0  0  0  0  0  0  0  0
   -0.8236    3.6211   -0.0000 C   0  0  0  0  0  0  0  0  0  0  0  0
   -1.9588    4.3936   -0.0000 C   0  0  0  0  0  0  0  0  0  0  0  0
   -3.2772    3.8352    0.0000 C   0  0  0  0  0  0  0  0  0  0  0  0
   -3.4837    2.4832    0.0000 C   0  0  0  0  0  0  0  0  0  0  0  0
   -1.8221    6.0897   -0.0000 Cl  0  0  0  0  0  0  0  0  0  0  0  0
    3.0405   -3.1840    0.0000 C   0  0  0  0  0  0  0  0  0  0  0  0
    3.3264   -4.6852   -0.0000 C   0  0  0  0  0  0  0  0  0  0  0  0
    3.6931   -2.5977   -1.2494 C   0  0  0  0  0  0  0  0  0  0  0  0
    3.6931   -2.5978    1.2495 C   0  0  0  0  0  0  0  0  0  0  0  0
    2.0654   -0.5947    0.0000 O   0  0  0  0  0  0  0  0  0  0  0  0
    0.9570   -4.9753   -0.0000 H   0  0  0  0  0  0  0  0  0  0  0  0
   -2.3090   -2.2083   -0.0000 H   0  0  0  0  0  0  0  0  0  0  0  0
   -2.7551   -4.4735   -0.0000 H   0  0  0  0  0  0  0  0  0  0  0  0
   -1.5302   -5.4564   -0.9063 H   0  0  0  0  0  0  0  0  0  0  0  0
   -1.5302   -5.4564    0.9063 H   0  0  0  0  0  0  0  0  0  0  0  0
    0.1874    4.0534   -0.0000 H   0  0  0  0  0  0  0  0  0  0  0  0
   -4.1357    4.5261    0.0000 H   0  0  0  0  0  0  0  0  0  0  0  0
   -4.4938    2.0487    0.0000 H   0  0  0  0  0  0  0  0  0  0  0  0
    2.9029   -5.1707   -0.9113 H   0  0  0  0  0  0  0  0  0  0  0  0
    4.4315   -4.8515   -0.0000 H   0  0  0  0  0  0  0  0  0  0  0  0
    2.9029   -5.1707    0.9113 H   0  0  0  0  0  0  0  0  0  0  0  0
    3.6167   -1.4846   -1.2566 H   0  0  0  0  0  0  0  0  0  0  0  0
    4.7745   -2.8760   -1.2740 H   0  0  0  0  0  0  0  0  0  0  0  0
    3.1993   -2.9987   -2.1662 H   0  0  0  0  0  0  0  0  0  0  0  0
    3.6167   -1.4846    1.2566 H   0  0  0  0  0  0  0  0  0  0  0  0
    3.1993   -2.9987    2.1662 H   0  0  0  0  0  0  0  0  0  0  0  0
    4.7745   -2.8761    1.2740 H   0  0  0  0  0  0  0  0  0  0  0  0
    1.7013    0.3031   -0.0000 H   0  0  0  0  0  0  0  0  0  0  0  0
  1  2  2  0  0  0  0
  1  6  1  0  0  0  0
  1 22  1  0  0  0  0
  2  3  1  0  0  0  0
  2 18  1  0  0  0  0
  3  4  2  0  0  0  0
  3 23  1  0  0  0  0
  4  5  1  0  0  0  0
  4  7  1  0  0  0  0
  5  6  2  0  0  0  0
  5 24  1  0  0  0  0
  6  9  1  0  0  0  0
  7 25  1  0  0  0  0
  7 26  1  0  0  0  0
  7 27  1  0  0  0  0
  8  9  1  0  0  0  0
  8 12  2  0  0  0  0
  9 10  1  0  0  0  0
 10 11  2  0  0  0  0
 11 12  1  0  0  0  0
 11 13  1  0  0  0  0
 12 16  1  0  0  0  0
 13 14  2  0  0  0  0
 13 28  1  0  0  0  0
 14 15  1  0  0  0  0
 14 17  1  0  0  0  0
 15 16  2  0  0  0  0
 15 29  1  0  0  0  0
 16 30  1  0  0  0  0
 18 19  1  0  0  0  0
 18 20  1  0  0  0  0
 18 21  1  0  0  0  0
 19 31  1  0  0  0  0
 19 32  1  0  0  0  0
 19 33  1  0  0  0  0
 20 34  1  0  0  0  0
 20 35  1  0  0  0  0
 20 36  1  0  0  0  0
 21 37  1  0  0  0  0
 21 38  1  0  0  0  0
 21 39  1  0  0  0  0
 22 40  1  0  0  0  0
M  END
