./004314-22-1.hin
  ACCLDraw05131623083D

 14 14  0  0  0  0  0  0  0  0999 V2000
   12.3239  -14.8236    0.6002 C   0  0  3  0  0  0  0  0  0  0  0  0
   11.6629  -14.8898   -0.7623 C   0  0  0  0  0  0  0  0  0  0  0  0
   10.3110  -15.0163   -0.6797 O   0  0  0  0  0  0  0  0  0  0  0  0
   12.1704  -14.8855   -1.8836 O   0  0  0  0  0  0  0  0  0  0  0  0
   13.4670  -13.9506    0.6454 N   0  0  3  0  0  0  0  0  0  0  0  0
   13.4098  -12.6390    0.9647 N   0  0  0  0  0  0  0  0  0  0  0  0
   14.6818  -12.1918    0.7980 N   0  0  0  0  0  0  0  0  0  0  0  0
   15.5683  -13.1972    0.3534 C   0  0  0  0  0  0  0  0  0  0  0  0
   14.7865  -14.2862    0.2507 C   0  0  0  0  0  0  0  0  0  0  0  0
   12.6642  -15.8692    0.8536 H   0  0  0  0  0  0  0  0  0  0  0  0
   11.5551  -14.4910    1.3582 H   0  0  0  0  0  0  0  0  0  0  0  0
    9.9317  -15.0693   -1.5733 H   0  0  0  0  0  0  0  0  0  0  0  0
   15.0802  -15.2887   -0.0765 H   0  0  0  0  0  0  0  0  0  0  0  0
   16.9088  -13.1972    0.0949 H   0  0  0  0  0  0  0  0  0  0  0  0
  1  2  1  0  0  0  0
  1  5  1  0  0  0  0
  1 10  1  0  0  0  0
  1 11  1  0  0  0  0
  2  3  1  0  0  0  0
  2  4  2  0  0  0  0
  3 12  1  0  0  0  0
  5  6  1  0  0  0  0
  5  9  1  0  0  0  0
  6  7  2  0  0  0  0
  7  8  1  0  0  0  0
  8  9  2  0  0  0  0
  9 13  1  0  0  0  0
  8 14  1  0  0  0  0
M  END