./004343-73-1.hin
 OpenBabel10051109203D

 20 20  0  0  0  0  0  0  0  0999 V2000
   -0.6383   -2.6058    0.0000 N   0  0  0  0  0  0  0  0  0  0  0  0
    0.6499   -2.9831   -0.0000 N   0  0  0  0  0  0  0  0  0  0  0  0
    1.5487   -2.0081   -0.0000 N   0  0  0  0  0  0  0  0  0  0  0  0
    0.8080   -0.8537   -0.0000 C   0  0  0  0  0  0  0  0  0  0  0  0
   -0.6082   -1.2426    0.0000 C   0  0  0  0  0  0  0  0  0  0  0  0
    1.3795    0.4876   -0.0000 C   0  0  0  0  0  0  0  0  0  0  0  0
    2.5675    0.8140   -0.0000 O   0  0  0  0  0  0  0  0  0  0  0  0
    0.4315    1.4778   -0.0000 O   0  0  0  0  0  0  0  0  0  0  0  0
   -1.7608   -0.3296    0.0000 C   0  0  0  0  0  0  0  0  0  0  0  0
    0.9356    2.8283   -0.0000 C   0  0  0  0  0  0  0  0  0  0  0  0
   -0.2759    3.7279   -0.0000 C   0  0  0  0  0  0  0  0  0  0  0  0
    0.9155   -3.9500    0.0000 H   0  0  0  0  0  0  0  0  0  0  0  0
   -1.7097    0.3283   -0.9050 H   0  0  0  0  0  0  0  0  0  0  0  0
   -2.7328   -0.8804   -0.0000 H   0  0  0  0  0  0  0  0  0  0  0  0
   -1.7097    0.3283    0.9050 H   0  0  0  0  0  0  0  0  0  0  0  0
    1.5689    2.9745   -0.9136 H   0  0  0  0  0  0  0  0  0  0  0  0
    1.5689    2.9745    0.9136 H   0  0  0  0  0  0  0  0  0  0  0  0
    0.0632    4.7914   -0.0000 H   0  0  0  0  0  0  0  0  0  0  0  0
   -0.9026    3.5437   -0.9051 H   0  0  0  0  0  0  0  0  0  0  0  0
   -0.9026    3.5437    0.9051 H   0  0  0  0  0  0  0  0  0  0  0  0
  1  2  1  0  0  0  0
  1  5  2  0  0  0  0
  2  3  1  0  0  0  0
  2 12  1  0  0  0  0
  3  4  2  0  0  0  0
  4  5  1  0  0  0  0
  4  6  1  0  0  0  0
  5  9  1  0  0  0  0
  6  7  2  0  0  0  0
  6  8  1  0  0  0  0
  8 10  1  0  0  0  0
  9 13  1  0  0  0  0
  9 14  1  0  0  0  0
  9 15  1  0  0  0  0
 10 11  1  0  0  0  0
 10 16  1  0  0  0  0
 10 17  1  0  0  0  0
 11 18  1  0  0  0  0
 11 19  1  0  0  0  0
 11 20  1  0  0  0  0
M  END
