./004368-68-7.hin
 OpenBabel10051109203D

 21 22  0  0  0  0  0  0  0  0999 V2000
   -2.5827   -0.3411   -2.3618 C   0  0  0  0  0  0  0  0  0  0  0  0
   -2.9977   -0.6448   -1.0651 C   0  0  0  0  0  0  0  0  0  0  0  0
   -2.0540   -0.8654   -0.0627 C   0  0  0  0  0  0  0  0  0  0  0  0
   -0.6892   -0.7901   -0.3575 C   0  0  0  0  0  0  0  0  0  0  0  0
   -0.2745   -0.4868   -1.6584 C   0  0  0  0  0  0  0  0  0  0  0  0
   -1.2215   -0.2613   -2.6566 C   0  0  0  0  0  0  0  0  0  0  0  0
    0.3227   -1.0725    0.7137 C   0  0  0  0  0  0  0  0  0  0  0  0
    1.1952    0.0448    1.0226 N   0  0  0  0  0  0  0  0  0  0  0  0
    0.9110    1.0586    1.9527 C   0  0  0  0  0  0  0  0  0  0  0  0
    2.0040    1.9333    1.8459 C   0  0  0  0  0  0  0  0  0  0  0  0
    2.8585    1.3977    0.8588 N   0  0  0  0  0  0  0  0  0  0  0  0
    2.3668    0.3214    0.3972 N   0  0  0  0  0  0  0  0  0  0  0  0
   -3.3284   -0.1640   -3.1508 H   0  0  0  0  0  0  0  0  0  0  0  0
   -4.0705   -0.7084   -0.8308 H   0  0  0  0  0  0  0  0  0  0  0  0
   -2.3873   -1.1020    0.9588 H   0  0  0  0  0  0  0  0  0  0  0  0
    0.7999   -0.4243   -1.8926 H   0  0  0  0  0  0  0  0  0  0  0  0
   -0.8922   -0.0197   -3.6781 H   0  0  0  0  0  0  0  0  0  0  0  0
    0.9622   -1.9443    0.3855 H   0  0  0  0  0  0  0  0  0  0  0  0
   -0.2000   -1.3563    1.6723 H   0  0  0  0  0  0  0  0  0  0  0  0
    0.0182    1.0649    2.5723 H   0  0  0  0  0  0  0  0  0  0  0  0
    2.2332    2.8537    2.3755 H   0  0  0  0  0  0  0  0  0  0  0  0
  1  2  2  0  0  0  0
  1  6  1  0  0  0  0
  1 13  1  0  0  0  0
  2  3  1  0  0  0  0
  2 14  1  0  0  0  0
  3  4  2  0  0  0  0
  3 15  1  0  0  0  0
  4  5  1  0  0  0  0
  4  7  1  0  0  0  0
  5  6  2  0  0  0  0
  5 16  1  0  0  0  0
  6 17  1  0  0  0  0
  7  8  1  0  0  0  0
  7 18  1  0  0  0  0
  7 19  1  0  0  0  0
  8  9  1  0  0  0  0
  8 12  1  0  0  0  0
  9 10  2  0  0  0  0
  9 20  1  0  0  0  0
 10 11  1  0  0  0  0
 10 21  1  0  0  0  0
 11 12  2  0  0  0  0
M  END
