./005302-27-2.hin
 OpenBabel10051109203D

 28 28  0  0  0  0  0  0  0  0999 V2000
   -0.5098   -1.4803    0.2070 C   0  0  0  0  0  0  0  0  0  0  0  0
    0.7778   -1.9035   -0.2033 N   0  0  0  0  0  0  0  0  0  0  0  0
    1.5548   -0.7607   -0.5052 C   0  0  0  0  0  0  0  0  0  0  0  0
    2.7265   -0.7835   -0.9021 O   0  0  0  0  0  0  0  0  0  0  0  0
    0.7047    0.4310   -0.3383 N   0  0  0  0  0  0  0  0  0  0  0  0
   -0.5242   -0.0084    0.2211 N   0  0  0  0  0  0  0  0  0  0  0  0
   -1.7350    0.5813   -0.4108 C   0  0  0  0  0  0  0  0  0  0  0  0
   -2.0476    0.0592   -1.8088 C   0  0  0  0  0  0  0  0  0  0  0  0
   -2.9506    0.3867    0.4942 C   0  0  0  0  0  0  0  0  0  0  0  0
    1.4086    1.5142    0.4098 C   0  0  0  0  0  0  0  0  0  0  0  0
    2.3950    2.2198   -0.5242 C   0  0  0  0  0  0  0  0  0  0  0  0
    0.4837    2.5641    1.0169 C   0  0  0  0  0  0  0  0  0  0  0  0
   -1.4228   -2.2370    0.5601 O   0  0  0  0  0  0  0  0  0  0  0  0
    1.0832   -2.8392   -0.2682 H   0  0  0  0  0  0  0  0  0  0  0  0
   -1.5359    1.6942   -0.4864 H   0  0  0  0  0  0  0  0  0  0  0  0
   -2.9547    0.5801   -2.1992 H   0  0  0  0  0  0  0  0  0  0  0  0
   -1.2003    0.2526   -2.5091 H   0  0  0  0  0  0  0  0  0  0  0  0
   -2.2535   -1.0388   -1.7821 H   0  0  0  0  0  0  0  0  0  0  0  0
   -3.8191    0.9146    0.0321 H   0  0  0  0  0  0  0  0  0  0  0  0
   -3.2003   -0.6969    0.6042 H   0  0  0  0  0  0  0  0  0  0  0  0
   -2.7662    0.8164    1.5078 H   0  0  0  0  0  0  0  0  0  0  0  0
    1.9984    1.0494    1.2584 H   0  0  0  0  0  0  0  0  0  0  0  0
    2.9487    2.9877    0.0680 H   0  0  0  0  0  0  0  0  0  0  0  0
    3.1314    1.4975   -0.9538 H   0  0  0  0  0  0  0  0  0  0  0  0
    1.8590    2.7275   -1.3607 H   0  0  0  0  0  0  0  0  0  0  0  0
    1.1150    3.3117    1.5574 H   0  0  0  0  0  0  0  0  0  0  0  0
   -0.0917    3.0988    0.2238 H   0  0  0  0  0  0  0  0  0  0  0  0
   -0.2316    2.1180    1.7479 H   0  0  0  0  0  0  0  0  0  0  0  0
  1  2  1  0  0  0  0
  1  6  1  0  0  0  0
  1 13  2  0  0  0  0
  2  3  1  0  0  0  0
  2 14  1  0  0  0  0
  3  4  2  0  0  0  0
  3  5  1  0  0  0  0
  5  6  1  0  0  0  0
  5 10  1  0  0  0  0
  6  7  1  0  0  0  0
  7  8  1  0  0  0  0
  7  9  1  0  0  0  0
  7 15  1  0  0  0  0
  8 16  1  0  0  0  0
  8 17  1  0  0  0  0
  8 18  1  0  0  0  0
  9 19  1  0  0  0  0
  9 20  1  0  0  0  0
  9 21  1  0  0  0  0
 10 11  1  0  0  0  0
 10 12  1  0  0  0  0
 10 22  1  0  0  0  0
 11 23  1  0  0  0  0
 11 24  1  0  0  0  0
 11 25  1  0  0  0  0
 12 26  1  0  0  0  0
 12 27  1  0  0  0  0
 12 28  1  0  0  0  0
M  END
