./005472-71-9.hin
 OpenBabel10051109203D

 30 32  0  0  0  0  0  0  0  0999 V2000
   -0.7255   -1.0359   -3.2114 C   0  0  0  0  0  0  0  0  0  0  0  0
   -1.3513   -0.6668   -1.8628 C   0  0  0  0  0  0  0  0  0  0  0  0
   -1.1672    0.7238   -1.4867 N   0  0  0  0  0  0  0  0  0  0  0  0
    0.0840    1.3547   -1.8679 C   0  0  0  0  0  0  0  0  0  0  0  0
    0.6355    0.8811   -3.2163 C   0  0  0  0  0  0  0  0  0  0  0  0
    0.6004   -0.5359   -3.3311 O   0  0  0  0  0  0  0  0  0  0  0  0
   -1.6410    1.0635   -0.1731 C   0  0  0  0  0  0  0  0  0  0  0  0
   -0.9384    0.5681    1.0323 N   0  0  0  0  0  0  0  0  0  0  0  0
   -1.4073    0.9046    2.2703 N   0  0  0  0  0  0  0  0  0  0  0  0
   -0.7143    0.4151    3.2012 N   0  0  0  0  0  0  0  0  0  0  0  0
    0.3506   -0.3427    2.6364 C   0  0  0  0  0  0  0  0  0  0  0  0
    0.2033   -0.2421    1.1925 C   0  0  0  0  0  0  0  0  0  0  0  0
    1.3914   -1.0801    3.2079 C   0  0  0  0  0  0  0  0  0  0  0  0
    2.2780   -1.7121    2.3499 C   0  0  0  0  0  0  0  0  0  0  0  0
    2.1391   -1.6174    0.9531 C   0  0  0  0  0  0  0  0  0  0  0  0
    1.1181   -0.8941    0.3537 C   0  0  0  0  0  0  0  0  0  0  0  0
   -1.3525   -0.6491   -4.0578 H   0  0  0  0  0  0  0  0  0  0  0  0
   -0.6150   -2.1492   -3.2919 H   0  0  0  0  0  0  0  0  0  0  0  0
   -0.9483   -1.3716   -1.0785 H   0  0  0  0  0  0  0  0  0  0  0  0
   -2.4635   -0.8427   -1.9314 H   0  0  0  0  0  0  0  0  0  0  0  0
    0.8842    1.2092   -1.0851 H   0  0  0  0  0  0  0  0  0  0  0  0
   -0.1167    2.4625   -1.9397 H   0  0  0  0  0  0  0  0  0  0  0  0
    1.7228    1.1436   -3.3003 H   0  0  0  0  0  0  0  0  0  0  0  0
    0.0615    1.3427   -4.0628 H   0  0  0  0  0  0  0  0  0  0  0  0
   -1.6348    2.1958   -0.0984 H   0  0  0  0  0  0  0  0  0  0  0  0
   -2.7076    0.6843   -0.0944 H   0  0  0  0  0  0  0  0  0  0  0  0
    1.4940   -1.1499    4.3003 H   0  0  0  0  0  0  0  0  0  0  0  0
    3.1097   -2.3016    2.7639 H   0  0  0  0  0  0  0  0  0  0  0  0
    2.8688   -2.1374    0.3120 H   0  0  0  0  0  0  0  0  0  0  0  0
    1.0500   -0.8487   -0.7439 H   0  0  0  0  0  0  0  0  0  0  0  0
  1  2  1  0  0  0  0
  1  6  1  0  0  0  0
  1 17  1  0  0  0  0
  1 18  1  0  0  0  0
  2  3  1  0  0  0  0
  2 19  1  0  0  0  0
  2 20  1  0  0  0  0
  3  4  1  0  0  0  0
  3  7  1  0  0  0  0
  4  5  1  0  0  0  0
  4 21  1  0  0  0  0
  4 22  1  0  0  0  0
  5  6  1  0  0  0  0
  5 23  1  0  0  0  0
  5 24  1  0  0  0  0
  7  8  1  0  0  0  0
  7 25  1  0  0  0  0
  7 26  1  0  0  0  0
  8  9  1  0  0  0  0
  8 12  1  0  0  0  0
  9 10  2  0  0  0  0
 10 11  1  0  0  0  0
 11 12  2  0  0  0  0
 11 13  1  0  0  0  0
 12 16  1  0  0  0  0
 13 14  2  0  0  0  0
 13 27  1  0  0  0  0
 14 15  1  0  0  0  0
 14 28  1  0  0  0  0
 15 16  2  0  0  0  0
 15 29  1  0  0  0  0
 16 30  1  0  0  0  0
M  END
