./006085-94-5.hin
 OpenBabel10051109203D

 21 22  0  0  0  0  0  0  0  0999 V2000
    0.6396   -0.2466    0.9299 C   0  0  0  0  0  0  0  0  0  0  0  0
   -0.6426   -1.0204    0.8420 C   0  0  0  0  0  0  0  0  0  0  0  0
   -1.3287   -0.9011   -0.4316 N   0  0  0  0  0  0  0  0  0  0  0  0
   -2.3199    0.0568   -0.7412 C   0  0  0  0  0  0  0  0  0  0  0  0
   -2.6765   -0.0720   -2.0358 N   0  0  0  0  0  0  0  0  0  0  0  0
   -1.8592   -1.1206   -2.4974 C   0  0  0  0  0  0  0  0  0  0  0  0
   -1.0362   -1.6181   -1.5318 N   0  0  0  0  0  0  0  0  0  0  0  0
    0.7510    0.8208    1.8262 C   0  0  0  0  0  0  0  0  0  0  0  0
    1.9546    1.5159    1.9374 C   0  0  0  0  0  0  0  0  0  0  0  0
    3.0473    1.1524    1.1504 C   0  0  0  0  0  0  0  0  0  0  0  0
    2.9365    0.0906    0.2524 C   0  0  0  0  0  0  0  0  0  0  0  0
    1.7360   -0.6098    0.1411 C   0  0  0  0  0  0  0  0  0  0  0  0
   -0.4203   -2.1123    1.0283 H   0  0  0  0  0  0  0  0  0  0  0  0
   -1.3640   -0.6632    1.6321 H   0  0  0  0  0  0  0  0  0  0  0  0
   -2.7229    0.7663   -0.0130 H   0  0  0  0  0  0  0  0  0  0  0  0
   -1.8937   -1.4918   -3.5263 H   0  0  0  0  0  0  0  0  0  0  0  0
   -0.1085    1.1136    2.4476 H   0  0  0  0  0  0  0  0  0  0  0  0
    2.0398    2.3534    2.6453 H   0  0  0  0  0  0  0  0  0  0  0  0
    3.9953    1.7035    1.2372 H   0  0  0  0  0  0  0  0  0  0  0  0
    3.7965   -0.1958   -0.3709 H   0  0  0  0  0  0  0  0  0  0  0  0
    1.6475   -1.4466   -0.5694 H   0  0  0  0  0  0  0  0  0  0  0  0
  1  2  1  0  0  0  0
  1  8  2  0  0  0  0
  1 12  1  0  0  0  0
  2  3  1  0  0  0  0
  2 13  1  0  0  0  0
  2 14  1  0  0  0  0
  3  4  1  0  0  0  0
  3  7  1  0  0  0  0
  4  5  2  0  0  0  0
  4 15  1  0  0  0  0
  5  6  1  0  0  0  0
  6  7  2  0  0  0  0
  6 16  1  0  0  0  0
  8  9  1  0  0  0  0
  8 17  1  0  0  0  0
  9 10  2  0  0  0  0
  9 18  1  0  0  0  0
 10 11  1  0  0  0  0
 10 19  1  0  0  0  0
 11 12  2  0  0  0  0
 11 20  1  0  0  0  0
 12 21  1  0  0  0  0
M  END
