./006789-99-7.hin
 OpenBabel10051109203D

 18 19  0  0  0  0  0  0  0  0999 V2000
   -0.5930   -1.9467    0.0165 N   0  0  0  0  0  0  0  0  0  0  0  0
    0.7111   -2.2545    0.0106 N   0  0  0  0  0  0  0  0  0  0  0  0
    1.5664   -1.2232   -0.0059 N   0  0  0  0  0  0  0  0  0  0  0  0
    0.7714   -0.1202   -0.0118 C   0  0  0  0  0  0  0  0  0  0  0  0
   -0.6232   -0.5873    0.0028 C   0  0  0  0  0  0  0  0  0  0  0  0
    1.1353    1.3093   -0.0096 C   0  0  0  0  0  0  0  0  0  0  0  0
   -0.0682    2.1559   -0.3950 C   0  0  0  0  0  0  0  0  0  0  0  0
   -1.3273    1.7420    0.3409 C   0  0  0  0  0  0  0  0  0  0  0  0
   -1.7753    0.3336   -0.0186 C   0  0  0  0  0  0  0  0  0  0  0  0
    1.4886    1.5946    1.0190 H   0  0  0  0  0  0  0  0  0  0  0  0
    1.9805    1.5055   -0.7217 H   0  0  0  0  0  0  0  0  0  0  0  0
   -0.2417    2.0736   -1.5001 H   0  0  0  0  0  0  0  0  0  0  0  0
    0.1595    3.2299   -0.1674 H   0  0  0  0  0  0  0  0  0  0  0  0
   -2.1548    2.4570    0.0931 H   0  0  0  0  0  0  0  0  0  0  0  0
   -1.1467    1.8035    1.4463 H   0  0  0  0  0  0  0  0  0  0  0  0
   -2.2277    0.3284   -1.0480 H   0  0  0  0  0  0  0  0  0  0  0  0
   -2.5689   -0.0063    0.6989 H   0  0  0  0  0  0  0  0  0  0  0  0
    1.0286   -3.2023    0.0177 H   0  0  0  0  0  0  0  0  0  0  0  0
  1  2  1  0  0  0  0
  1  5  2  0  0  0  0
  2  3  1  0  0  0  0
  2 18  1  0  0  0  0
  3  4  2  0  0  0  0
  4  5  1  0  0  0  0
  4  6  1  0  0  0  0
  5  9  1  0  0  0  0
  6  7  1  0  0  0  0
  6 10  1  0  0  0  0
  6 11  1  0  0  0  0
  7  8  1  0  0  0  0
  7 12  1  0  0  0  0
  7 13  1  0  0  0  0
  8  9  1  0  0  0  0
  8 14  1  0  0  0  0
  8 15  1  0  0  0  0
  9 16  1  0  0  0  0
  9 17  1  0  0  0  0
M  END
