./010187-79-8.hin
 OpenBabel10051109203D

 27 28  0  0  0  0  0  0  0  0999 V2000
    0.2050   -0.4423   -0.0000 C   0  0  0  0  0  0  0  0  0  0  0  0
    0.2420    0.8972   -0.0000 C   0  0  0  0  0  0  0  0  0  0  0  0
    1.2942    1.5377   -0.0000 O   0  0  0  0  0  0  0  0  0  0  0  0
    1.0195    2.7352    0.0000 C   0  0  0  0  0  0  0  0  0  0  0  0
    2.0047    3.8331    0.0000 N   0  3  0  0  0  0  0  0  0  0  0  0
    3.1809    3.5018    0.0000 O   0  0  0  0  0  0  0  0  0  0  0  0
    1.5529    4.9678    0.0000 O   0  5  0  0  0  0  0  0  0  0  0  0
   -0.3027    2.9520    0.0000 C   0  0  0  0  0  0  0  0  0  0  0  0
   -0.8207    1.7174   -0.0000 C   0  0  0  0  0  0  0  0  0  0  0  0
   -0.9372   -1.1624   -0.0000 N   0  0  0  0  0  0  0  0  0  0  0  0
   -0.5327   -2.4496   -0.0000 C   0  0  0  0  0  0  0  0  0  0  0  0
   -1.2999   -3.5492   -0.0000 N   0  0  0  0  0  0  0  0  0  0  0  0
   -2.6786   -3.5210    0.0000 C   0  0  0  0  0  0  0  0  0  0  0  0
   -3.3487   -4.8829   -0.0000 C   0  0  0  0  0  0  0  0  0  0  0  0
   -3.3417   -2.5107    0.0000 O   0  0  0  0  0  0  0  0  0  0  0  0
    0.8098   -2.4975   -0.0000 N   0  0  0  0  0  0  0  0  0  0  0  0
    1.2931   -1.2348   -0.0000 N   0  0  0  0  0  0  0  0  0  0  0  0
    1.6292   -3.6805    0.0000 C   0  0  0  0  0  0  0  0  0  0  0  0
   -0.8512    3.9085    0.0000 H   0  0  0  0  0  0  0  0  0  0  0  0
   -1.8903    1.4483   -0.0000 H   0  0  0  0  0  0  0  0  0  0  0  0
   -0.7585   -4.4104   -0.0000 H   0  0  0  0  0  0  0  0  0  0  0  0
   -4.4587   -4.7876    0.0000 H   0  0  0  0  0  0  0  0  0  0  0  0
   -3.0484   -5.4564   -0.9064 H   0  0  0  0  0  0  0  0  0  0  0  0
   -3.0484   -5.4565    0.9064 H   0  0  0  0  0  0  0  0  0  0  0  0
    1.4197   -4.2893   -0.9089 H   0  0  0  0  0  0  0  0  0  0  0  0
    2.7093   -3.4086    0.0000 H   0  0  0  0  0  0  0  0  0  0  0  0
    1.4197   -4.2893    0.9089 H   0  0  0  0  0  0  0  0  0  0  0  0
  1  2  1  0  0  0  0
  1 10  1  0  0  0  0
  1 17  2  0  0  0  0
  2  3  1  0  0  0  0
  2  9  2  0  0  0  0
  3  4  1  0  0  0  0
  4  5  1  0  0  0  0
  4  8  2  0  0  0  0
  5  6  2  0  0  0  0
  5  7  1  0  0  0  0
  8  9  1  0  0  0  0
  8 19  1  0  0  0  0
  9 20  1  0  0  0  0
 10 11  2  0  0  0  0
 11 12  1  0  0  0  0
 11 16  1  0  0  0  0
 12 13  1  0  0  0  0
 12 21  1  0  0  0  0
 13 14  1  0  0  0  0
 13 15  2  0  0  0  0
 14 22  1  0  0  0  0
 14 23  1  0  0  0  0
 14 24  1  0  0  0  0
 16 17  1  0  0  0  0
 16 18  1  0  0  0  0
 18 25  1  0  0  0  0
 18 26  1  0  0  0  0
 18 27  1  0  0  0  0
M  CHG   2   5   1   7  -1
M  END
