./010187-86-7.hin
 OpenBabel10051109203D

 22 23  0  0  0  0  0  0  0  0999 V2000
    0.3051   -1.3689   -0.1782 C   0  0  0  0  0  0  0  0  0  0  0  0
    1.4162   -2.2170    0.0422 N   0  0  0  0  0  0  0  0  0  0  0  0
    0.8889   -3.5230   -0.0909 C   0  0  0  0  0  0  0  0  0  0  0  0
    1.6322   -4.6903    0.1423 N   0  0  0  0  0  0  0  0  0  0  0  0
   -0.4745   -3.4084   -0.3751 N   0  0  0  0  0  0  0  0  0  0  0  0
   -0.8038   -2.1497   -0.4139 N   0  0  0  0  0  0  0  0  0  0  0  0
    2.7519   -1.8557    0.3773 C   0  0  0  0  0  0  0  0  0  0  0  0
    0.3734    0.0664   -0.1708 C   0  0  0  0  0  0  0  0  0  0  0  0
   -0.8070    0.7394    0.1501 O   0  0  0  0  0  0  0  0  0  0  0  0
   -0.4825    2.1060    0.0710 C   0  0  0  0  0  0  0  0  0  0  0  0
   -1.5425    3.0692    0.3532 N   0  3  0  0  0  0  0  0  0  0  0  0
   -2.6358    2.6798    0.6485 O   0  0  0  0  0  0  0  0  0  0  0  0
    0.8495    2.2852   -0.2835 C   0  0  0  0  0  0  0  0  0  0  0  0
    1.3994    0.9678   -0.4390 C   0  0  0  0  0  0  0  0  0  0  0  0
    2.4469   -4.7457   -0.4359 H   0  0  0  0  0  0  0  0  0  0  0  0
    1.0622   -5.5110    0.0714 H   0  0  0  0  0  0  0  0  0  0  0  0
    2.7538   -0.8567    0.8924 H   0  0  0  0  0  0  0  0  0  0  0  0
    3.1947   -2.6242    1.0672 H   0  0  0  0  0  0  0  0  0  0  0  0
    3.3797   -1.7892   -0.5534 H   0  0  0  0  0  0  0  0  0  0  0  0
    1.3672    3.2343   -0.4189 H   0  0  0  0  0  0  0  0  0  0  0  0
    2.4198    0.7362   -0.7336 H   0  0  0  0  0  0  0  0  0  0  0  0
   -1.2598    4.2365    0.2775 O   0  5  0  0  0  0  0  0  0  0  0  0
  1  2  1  0  0  0  0
  1  6  2  0  0  0  0
  1  8  1  0  0  0  0
  2  3  1  0  0  0  0
  2  7  1  0  0  0  0
  3  4  1  0  0  0  0
  3  5  2  0  0  0  0
  4 15  1  0  0  0  0
  4 16  1  0  0  0  0
  5  6  1  0  0  0  0
  7 17  1  0  0  0  0
  7 18  1  0  0  0  0
  7 19  1  0  0  0  0
  8  9  1  0  0  0  0
  8 14  2  0  0  0  0
  9 10  1  0  0  0  0
 10 11  1  0  0  0  0
 10 13  2  0  0  0  0
 11 12  2  0  0  0  0
 11 22  1  0  0  0  0
 13 14  1  0  0  0  0
 13 20  1  0  0  0  0
 14 21  1  0  0  0  0
M  CHG   2  11   1  22  -1
M  END
