./013091-80-0.hin
 OpenBabel10051109203D

 16 17  0  0  0  0  0  0  0  0999 V2000
   -0.7701   -2.9282    0.0000 N   0  0  0  0  0  0  0  0  0  0  0  0
    0.5197   -3.2429    0.0000 N   0  0  0  0  0  0  0  0  0  0  0  0
    1.4049   -2.2480    0.0000 N   0  0  0  0  0  0  0  0  0  0  0  0
    0.6306   -1.1115    0.0000 C   0  0  0  0  0  0  0  0  0  0  0  0
   -0.7815   -1.5497    0.0000 C   0  0  0  0  0  0  0  0  0  0  0  0
    0.9122    0.2849    0.0000 C   0  0  0  0  0  0  0  0  0  0  0  0
   -0.1374    1.1811   -0.0000 C   0  0  0  0  0  0  0  0  0  0  0  0
   -1.4922    0.7304   -0.0000 C   0  0  0  0  0  0  0  0  0  0  0  0
   -1.8336   -0.6013   -0.0000 C   0  0  0  0  0  0  0  0  0  0  0  0
    2.3139    0.7790    0.0000 N   0  3  0  0  0  0  0  0  0  0  0  0
    2.4898    1.9707    0.0000 O   0  0  0  0  0  0  0  0  0  0  0  0
    3.2244    0.0008    0.0000 O   0  5  0  0  0  0  0  0  0  0  0  0
   -2.7089    1.9147   -0.0000 Cl  0  0  0  0  0  0  0  0  0  0  0  0
    0.0608    2.2706   -0.0000 H   0  0  0  0  0  0  0  0  0  0  0  0
   -2.8813   -0.9415   -0.0000 H   0  0  0  0  0  0  0  0  0  0  0  0
    0.8220   -4.2033    0.0000 H   0  0  0  0  0  0  0  0  0  0  0  0
  1  2  1  0  0  0  0
  1  5  2  0  0  0  0
  2  3  1  0  0  0  0
  2 16  1  0  0  0  0
  3  4  2  0  0  0  0
  4  5  1  0  0  0  0
  4  6  1  0  0  0  0
  5  9  1  0  0  0  0
  6  7  2  0  0  0  0
  6 10  1  0  0  0  0
  7  8  1  0  0  0  0
  7 14  1  0  0  0  0
  8  9  2  0  0  0  0
  8 13  1  0  0  0  0
  9 15  1  0  0  0  0
 10 11  2  0  0  0  0
 10 12  1  0  0  0  0
M  CHG   2  10   1  11  -1
M  END
