./013257-88-0.hin
 OpenBabel10051109203D

 20 20  0  0  0  0  0  0  0  0999 V2000
    0.5329    0.4225   -1.0241 Si  0  0  0  0  0  0  0  0  0  0  0  0
   -0.3086   -0.0999    0.4333 N   0  0  0  0  0  0  0  0  0  0  0  0
   -0.4598   -1.4105    0.6952 N   0  0  0  0  0  0  0  0  0  0  0  0
   -1.0898   -1.5942    1.7864 N   0  0  0  0  0  0  0  0  0  0  0  0
   -1.4125   -0.3390    2.3454 C   0  0  0  0  0  0  0  0  0  0  0  0
   -0.9046    0.6336    1.4657 C   0  0  0  0  0  0  0  0  0  0  0  0
    0.5174    2.2415   -0.9972 C   0  0  0  0  0  0  0  0  0  0  0  0
    2.2318   -0.2049   -0.9785 C   0  0  0  0  0  0  0  0  0  0  0  0
   -0.3560   -0.2049   -2.4727 C   0  0  0  0  0  0  0  0  0  0  0  0
   -1.9533   -0.2380    3.2820 H   0  0  0  0  0  0  0  0  0  0  0  0
   -0.9224    1.7216    1.4965 H   0  0  0  0  0  0  0  0  0  0  0  0
   -0.5190    2.6525   -0.9964 H   0  0  0  0  0  0  0  0  0  0  0  0
    1.0349    2.6525   -0.0993 H   0  0  0  0  0  0  0  0  0  0  0  0
    1.0343    2.6614   -1.8925 H   0  0  0  0  0  0  0  0  0  0  0  0
    2.2601   -1.3068   -0.8030 H   0  0  0  0  0  0  0  0  0  0  0  0
    2.7668   -0.0129   -1.9385 H   0  0  0  0  0  0  0  0  0  0  0  0
    2.8328    0.2685   -0.1674 H   0  0  0  0  0  0  0  0  0  0  0  0
   -0.5222   -1.3068   -2.4093 H   0  0  0  0  0  0  0  0  0  0  0  0
   -1.3590    0.2685   -2.5875 H   0  0  0  0  0  0  0  0  0  0  0  0
    0.2078   -0.0129   -3.4159 H   0  0  0  0  0  0  0  0  0  0  0  0
  1  2  1  0  0  0  0
  1  7  1  0  0  0  0
  1  8  1  0  0  0  0
  1  9  1  0  0  0  0
  2  3  1  0  0  0  0
  2  6  1  0  0  0  0
  3  4  2  0  0  0  0
  4  5  1  0  0  0  0
  5  6  2  0  0  0  0
  5 10  1  0  0  0  0
  6 11  1  0  0  0  0
  7 12  1  0  0  0  0
  7 13  1  0  0  0  0
  7 14  1  0  0  0  0
  8 15  1  0  0  0  0
  8 16  1  0  0  0  0
  8 17  1  0  0  0  0
  9 18  1  0  0  0  0
  9 19  1  0  0  0  0
  9 20  1  0  0  0  0
M  END
