./015497-45-4.hin
 OpenBabel10051109203D

 43 44  0  0  0  0  0  0  0  0999 V2000
   -0.8739   -1.1188   -1.2326 C   0  0  0  0  0  0  0  0  0  0  0  0
   -2.3195   -1.3373   -1.6883 C   0  0  0  0  0  0  0  0  0  0  0  0
   -2.4858   -2.7482   -2.2122 C   0  0  0  0  0  0  0  0  0  0  0  0
   -3.9047   -3.0061   -2.6496 C   0  0  0  0  0  0  0  0  0  0  0  0
   -0.6265    0.2249   -0.7495 N   0  0  0  0  0  0  0  0  0  0  0  0
    0.5579    0.9061   -1.2325 C   0  0  0  0  0  0  0  0  0  0  0  0
    0.2820    2.3419   -1.6883 C   0  0  0  0  0  0  0  0  0  0  0  0
    1.5568    2.9689   -2.2122 C   0  0  0  0  0  0  0  0  0  0  0  0
    1.3270    4.3926   -2.6497 C   0  0  0  0  0  0  0  0  0  0  0  0
   -1.0344    0.5134    0.5900 C   0  0  0  0  0  0  0  0  0  0  0  0
   -0.2557   -0.0373    1.7278 N   0  0  0  0  0  0  0  0  0  0  0  0
   -0.6303    0.2277    3.0118 N   0  0  0  0  0  0  0  0  0  0  0  0
    0.1312   -0.3109    3.8605 N   0  0  0  0  0  0  0  0  0  0  0  0
    1.1504   -1.0315    3.1762 C   0  0  0  0  0  0  0  0  0  0  0  0
    0.8929   -0.8494    1.7561 C   0  0  0  0  0  0  0  0  0  0  0  0
    2.2329   -1.7970    3.6190 C   0  0  0  0  0  0  0  0  0  0  0  0
    3.0488   -2.3739    2.6579 C   0  0  0  0  0  0  0  0  0  0  0  0
    2.8020   -2.1993    1.2835 C   0  0  0  0  0  0  0  0  0  0  0  0
    1.7374   -1.4466    0.8106 C   0  0  0  0  0  0  0  0  0  0  0  0
   -0.6367   -1.8823   -0.4339 H   0  0  0  0  0  0  0  0  0  0  0  0
   -0.1979   -1.3335   -2.1091 H   0  0  0  0  0  0  0  0  0  0  0  0
   -3.0250   -1.1688   -0.8333 H   0  0  0  0  0  0  0  0  0  0  0  0
   -2.5855   -0.6009   -2.4905 H   0  0  0  0  0  0  0  0  0  0  0  0
   -1.7899   -2.9124   -3.0772 H   0  0  0  0  0  0  0  0  0  0  0  0
   -2.1992   -3.4826   -1.4134 H   0  0  0  0  0  0  0  0  0  0  0  0
   -4.0067   -4.0483   -3.0376 H   0  0  0  0  0  0  0  0  0  0  0  0
   -4.6108   -2.8775   -1.7938 H   0  0  0  0  0  0  0  0  0  0  0  0
   -4.2032   -2.2969   -3.4592 H   0  0  0  0  0  0  0  0  0  0  0  0
    0.9857    0.3403   -2.1090 H   0  0  0  0  0  0  0  0  0  0  0  0
    1.3568    0.9370   -0.4339 H   0  0  0  0  0  0  0  0  0  0  0  0
   -0.5009    2.3472   -2.4905 H   0  0  0  0  0  0  0  0  0  0  0  0
   -0.1120    2.9509   -0.8334 H   0  0  0  0  0  0  0  0  0  0  0  0
    2.3448    2.9436   -1.4134 H   0  0  0  0  0  0  0  0  0  0  0  0
    1.9437    2.3676   -3.0772 H   0  0  0  0  0  0  0  0  0  0  0  0
    2.2756    4.8362   -3.0376 H   0  0  0  0  0  0  0  0  0  0  0  0
    0.5590    4.4377   -3.4593 H   0  0  0  0  0  0  0  0  0  0  0  0
    0.9704    5.0156   -1.7939 H   0  0  0  0  0  0  0  0  0  0  0  0
   -1.0206    1.6402    0.7205 H   0  0  0  0  0  0  0  0  0  0  0  0
   -2.0922    0.1248    0.7205 H   0  0  0  0  0  0  0  0  0  0  0  0
    2.4219   -1.9307    4.6937 H   0  0  0  0  0  0  0  0  0  0  0  0
    3.9102   -2.9830    2.9703 H   0  0  0  0  0  0  0  0  0  0  0  0
    3.4800   -2.6787    0.5599 H   0  0  0  0  0  0  0  0  0  0  0  0
    1.5741   -1.3311   -0.2693 H   0  0  0  0  0  0  0  0  0  0  0  0
  1  2  1  0  0  0  0
  1  5  1  0  0  0  0
  1 20  1  0  0  0  0
  1 21  1  0  0  0  0
  2  3  1  0  0  0  0
  2 22  1  0  0  0  0
  2 23  1  0  0  0  0
  3  4  1  0  0  0  0
  3 24  1  0  0  0  0
  3 25  1  0  0  0  0
  4 26  1  0  0  0  0
  4 27  1  0  0  0  0
  4 28  1  0  0  0  0
  5  6  1  0  0  0  0
  5 10  1  0  0  0  0
  6  7  1  0  0  0  0
  6 29  1  0  0  0  0
  6 30  1  0  0  0  0
  7  8  1  0  0  0  0
  7 31  1  0  0  0  0
  7 32  1  0  0  0  0
  8  9  1  0  0  0  0
  8 33  1  0  0  0  0
  8 34  1  0  0  0  0
  9 35  1  0  0  0  0
  9 36  1  0  0  0  0
  9 37  1  0  0  0  0
 10 11  1  0  0  0  0
 10 38  1  0  0  0  0
 10 39  1  0  0  0  0
 11 12  1  0  0  0  0
 11 15  1  0  0  0  0
 12 13  2  0  0  0  0
 13 14  1  0  0  0  0
 14 15  2  0  0  0  0
 14 16  1  0  0  0  0
 15 19  1  0  0  0  0
 16 17  2  0  0  0  0
 16 40  1  0  0  0  0
 17 18  1  0  0  0  0
 17 41  1  0  0  0  0
 18 19  2  0  0  0  0
 18 42  1  0  0  0  0
 19 43  1  0  0  0  0
M  END
