./018076-61-4.hin
 OpenBabel10051109203D

 16 17  0  0  0  0  0  0  0  0999 V2000
   -0.8182   -2.1577   -0.0000 N   0  0  0  0  0  0  0  0  0  0  0  0
    0.4991   -2.3748   -0.0000 N   0  0  0  0  0  0  0  0  0  0  0  0
    1.2982   -1.3146    0.0000 N   0  0  0  0  0  0  0  0  0  0  0  0
    0.4345   -0.2434    0.0000 C   0  0  0  0  0  0  0  0  0  0  0  0
   -0.9365   -0.7869   -0.0000 C   0  0  0  0  0  0  0  0  0  0  0  0
    0.6528    1.1798    0.0000 C   0  0  0  0  0  0  0  0  0  0  0  0
   -0.4860    1.9838    0.0000 C   0  0  0  0  0  0  0  0  0  0  0  0
   -1.7943    1.4387    0.0000 C   0  0  0  0  0  0  0  0  0  0  0  0
   -2.0490    0.0928   -0.0000 C   0  0  0  0  0  0  0  0  0  0  0  0
    1.9294    1.6819   -0.0000 N   0  0  0  0  0  0  0  0  0  0  0  0
    0.8705   -3.3065   -0.0000 H   0  0  0  0  0  0  0  0  0  0  0  0
   -0.3861    3.0789    0.0000 H   0  0  0  0  0  0  0  0  0  0  0  0
   -2.6361    2.1504    0.0000 H   0  0  0  0  0  0  0  0  0  0  0  0
   -3.0684   -0.3136   -0.0000 H   0  0  0  0  0  0  0  0  0  0  0  0
    2.0709    2.6577    0.0000 H   0  0  0  0  0  0  0  0  0  0  0  0
    2.7057    1.0737    0.0000 H   0  0  0  0  0  0  0  0  0  0  0  0
  1  2  1  0  0  0  0
  1  5  2  0  0  0  0
  2  3  1  0  0  0  0
  2 11  1  0  0  0  0
  3  4  2  0  0  0  0
  4  5  1  0  0  0  0
  4  6  1  0  0  0  0
  5  9  1  0  0  0  0
  6  7  2  0  0  0  0
  6 10  1  0  0  0  0
  7  8  1  0  0  0  0
  7 12  1  0  0  0  0
  8  9  2  0  0  0  0
  8 13  1  0  0  0  0
  9 14  1  0  0  0  0
 10 15  1  0  0  0  0
 10 16  1  0  0  0  0
M  END
