./018811-70-6.hin
 OpenBabel10051109203D

 30 32  0  0  0  0  0  0  0  0999 V2000
   -1.3590    0.6994   -0.0000 N   0  0  0  0  0  0  0  0  0  0  0  0
   -0.1426    1.4138   -0.0000 C   0  0  0  0  0  0  0  0  0  0  0  0
   -0.2820    2.6618   -0.0002 O   0  0  0  0  0  0  0  0  0  0  0  0
    1.0985    0.7881    0.0001 N   0  0  0  0  0  0  0  0  0  0  0  0
    2.3494    1.4350    0.0001 C   0  0  0  0  0  0  0  0  0  0  0  0
    3.5058    0.6132    0.0000 C   0  0  0  0  0  0  0  0  0  0  0  0
    4.7724    1.1839    0.0000 C   0  0  0  0  0  0  0  0  0  0  0  0
    4.9274    2.5696   -0.0000 C   0  0  0  0  0  0  0  0  0  0  0  0
    3.7974    3.3827   -0.0000 C   0  0  0  0  0  0  0  0  0  0  0  0
    2.5165    2.8345    0.0000 C   0  0  0  0  0  0  0  0  0  0  0  0
   -3.0750   -4.6151    0.0000 N   0  0  0  0  0  0  0  0  0  0  0  0
   -1.8508   -5.1319   -0.0000 N   0  0  0  0  0  0  0  0  0  0  0  0
   -0.8187   -4.2861   -0.0001 N   0  0  0  0  0  0  0  0  0  0  0  0
   -1.4057   -3.0406   -0.0001 C   0  0  0  0  0  0  0  0  0  0  0  0
   -2.8631   -3.2561    0.0000 C   0  0  0  0  0  0  0  0  0  0  0  0
   -0.8584   -1.7321   -0.0001 C   0  0  0  0  0  0  0  0  0  0  0  0
   -1.7203   -0.6488   -0.0000 C   0  0  0  0  0  0  0  0  0  0  0  0
   -3.1625   -0.8838    0.0000 C   0  0  0  0  0  0  0  0  0  0  0  0
   -3.7204   -2.1265    0.0000 C   0  0  0  0  0  0  0  0  0  0  0  0
   -2.1351    1.3375   -0.0001 H   0  0  0  0  0  0  0  0  0  0  0  0
    1.1448   -0.2033    0.0003 H   0  0  0  0  0  0  0  0  0  0  0  0
    3.4148   -0.4839    0.0000 H   0  0  0  0  0  0  0  0  0  0  0  0
    5.6585    0.5312   -0.0000 H   0  0  0  0  0  0  0  0  0  0  0  0
    5.9326    3.0140   -0.0000 H   0  0  0  0  0  0  0  0  0  0  0  0
    3.9083    4.4781   -0.0000 H   0  0  0  0  0  0  0  0  0  0  0  0
    1.6468    3.5120    0.0000 H   0  0  0  0  0  0  0  0  0  0  0  0
    0.2343   -1.6797   -0.0002 H   0  0  0  0  0  0  0  0  0  0  0  0
   -3.8354   -0.0088    0.0001 H   0  0  0  0  0  0  0  0  0  0  0  0
   -4.8118   -2.2687    0.0001 H   0  0  0  0  0  0  0  0  0  0  0  0
   -1.7052   -6.1253   -0.0000 H   0  0  0  0  0  0  0  0  0  0  0  0
  1  2  1  0  0  0  0
  1 17  1  0  0  0  0
  1 20  1  0  0  0  0
  2  3  2  0  0  0  0
  2  4  1  0  0  0  0
  4  5  1  0  0  0  0
  4 21  1  0  0  0  0
  5  6  2  0  0  0  0
  5 10  1  0  0  0  0
  6  7  1  0  0  0  0
  6 22  1  0  0  0  0
  7  8  2  0  0  0  0
  7 23  1  0  0  0  0
  8  9  1  0  0  0  0
  8 24  1  0  0  0  0
  9 10  2  0  0  0  0
  9 25  1  0  0  0  0
 10 26  1  0  0  0  0
 11 12  1  0  0  0  0
 11 15  2  0  0  0  0
 12 13  1  0  0  0  0
 12 30  1  0  0  0  0
 13 14  2  0  0  0  0
 14 15  1  0  0  0  0
 14 16  1  0  0  0  0
 15 19  1  0  0  0  0
 16 17  2  0  0  0  0
 16 27  1  0  0  0  0
 17 18  1  0  0  0  0
 18 19  2  0  0  0  0
 18 28  1  0  0  0  0
 19 29  1  0  0  0  0
M  END
