./024054-57-7.hin
 OpenBabel10051109203D

 26 27  0  0  0  0  0  0  0  0999 V2000
    0.2486   -0.7344   -0.0582 C   0  0  0  0  0  0  0  0  0  0  0  0
   -0.9360   -1.5029   -0.0902 N   0  0  0  0  0  0  0  0  0  0  0  0
   -0.6388   -2.8069   -0.1235 N   0  0  0  0  0  0  0  0  0  0  0  0
    0.7560   -2.8581   -0.1165 C   0  0  0  0  0  0  0  0  0  0  0  0
    1.3362   -1.5594   -0.0655 N   0  0  0  0  0  0  0  0  0  0  0  0
    1.5145   -4.0313   -0.2519 N   0  0  0  0  0  0  0  0  0  0  0  0
    0.8802   -5.2626    0.2081 C   0  0  0  0  0  0  0  0  0  0  0  0
    1.8394   -6.2937    0.3374 O   0  0  0  0  0  0  0  0  0  0  0  0
   -2.2780   -0.9676   -0.0973 C   0  0  0  0  0  0  0  0  0  0  0  0
    0.3214    0.7041   -0.0199 C   0  0  0  0  0  0  0  0  0  0  0  0
   -0.5108    2.7693    0.0374 C   0  0  0  0  0  0  0  0  0  0  0  0
   -1.5886    3.7523    0.0665 N   0  3  0  0  0  0  0  0  0  0  0  0
   -1.2820    4.9140    0.0973 O   0  0  0  0  0  0  0  0  0  0  0  0
   -2.7273    3.3756    0.0589 O   0  5  0  0  0  0  0  0  0  0  0  0
    0.8717    2.9064    0.0376 C   0  0  0  0  0  0  0  0  0  0  0  0
    1.4063    1.5714    0.0006 C   0  0  0  0  0  0  0  0  0  0  0  0
   -0.8856    1.4126    0.0018 O   0  0  0  0  0  0  0  0  0  0  0  0
    2.4603   -3.9262    0.0636 H   0  0  0  0  0  0  0  0  0  0  0  0
    0.4335   -5.1678    1.2423 H   0  0  0  0  0  0  0  0  0  0  0  0
    0.0812   -5.5401   -0.5365 H   0  0  0  0  0  0  0  0  0  0  0  0
    2.1220   -6.5612   -0.5469 H   0  0  0  0  0  0  0  0  0  0  0  0
   -2.4004   -0.3065   -0.9975 H   0  0  0  0  0  0  0  0  0  0  0  0
   -3.0341   -1.7952   -0.1297 H   0  0  0  0  0  0  0  0  0  0  0  0
   -2.4276   -0.3526    0.8311 H   0  0  0  0  0  0  0  0  0  0  0  0
    1.4360    3.8387    0.0610 H   0  0  0  0  0  0  0  0  0  0  0  0
    2.4601    1.2958   -0.0101 H   0  0  0  0  0  0  0  0  0  0  0  0
  1  2  1  0  0  0  0
  1  5  2  0  0  0  0
  1 10  1  0  0  0  0
  2  3  1  0  0  0  0
  2  9  1  0  0  0  0
  3  4  2  0  0  0  0
  4  5  1  0  0  0  0
  4  6  1  0  0  0  0
  6  7  1  0  0  0  0
  6 18  1  0  0  0  0
  7  8  1  0  0  0  0
  7 19  1  0  0  0  0
  7 20  1  0  0  0  0
  8 21  1  0  0  0  0
  9 22  1  0  0  0  0
  9 23  1  0  0  0  0
  9 24  1  0  0  0  0
 10 16  2  0  0  0  0
 10 17  1  0  0  0  0
 11 12  1  0  0  0  0
 11 15  2  0  0  0  0
 11 17  1  0  0  0  0
 12 13  2  0  0  0  0
 12 14  1  0  0  0  0
 15 16  1  0  0  0  0
 15 25  1  0  0  0  0
 16 26  1  0  0  0  0
M  CHG   2  12   1  14  -1
M  END
