./026621-45-4.hin
 OpenBabel10051109203D

 13 13  0  0  0  0  0  0  0  0999 V2000
   -0.8235   -1.4822    0.0000 N   0  0  0  0  0  0  0  0  0  0  0  0
   -0.8680   -0.1509    0.0000 N   0  0  0  0  0  0  0  0  0  0  0  0
    0.4622    0.2324   -0.0000 C   0  0  0  0  0  0  0  0  0  0  0  0
    1.3539   -0.8736   -0.0000 N   0  0  0  0  0  0  0  0  0  0  0  0
    0.5210   -1.9301   -0.0000 C   0  0  0  0  0  0  0  0  0  0  0  0
    0.9233    1.6508   -0.0000 N   0  3  0  0  0  0  0  0  0  0  0  0
    0.0949    2.5168   -0.0000 O   0  0  0  0  0  0  0  0  0  0  0  0
    2.0992    1.8707   -0.0000 O   0  5  0  0  0  0  0  0  0  0  0  0
   -1.9896   -2.3365    0.0000 C   0  0  0  0  0  0  0  0  0  0  0  0
    0.8076   -2.9877   -0.0000 H   0  0  0  0  0  0  0  0  0  0  0  0
   -2.6103   -2.1387   -0.9150 H   0  0  0  0  0  0  0  0  0  0  0  0
   -1.6423   -3.4024   -0.0000 H   0  0  0  0  0  0  0  0  0  0  0  0
   -2.6102   -2.1387    0.9151 H   0  0  0  0  0  0  0  0  0  0  0  0
  1  2  1  0  0  0  0
  1  5  1  0  0  0  0
  1  9  1  0  0  0  0
  2  3  2  0  0  0  0
  3  4  1  0  0  0  0
  3  6  1  0  0  0  0
  4  5  2  0  0  0  0
  5 10  1  0  0  0  0
  6  7  2  0  0  0  0
  6  8  1  0  0  0  0
  9 11  1  0  0  0  0
  9 12  1  0  0  0  0
  9 13  1  0  0  0  0
M  CHG   2   6   1   8  -1
M  END
