./027022-50-0.hin
 OpenBabel10051109203D

 23 25  0  0  0  0  0  0  0  0999 V2000
   -0.3768   -1.0470   -0.0003 C   0  0  0  0  0  0  0  0  0  0  0  0
   -0.4112    0.3738    0.0003 N   0  0  0  0  0  0  0  0  0  0  0  0
    0.7508    1.1296    0.0005 C   0  0  0  0  0  0  0  0  0  0  0  0
    1.9639    0.5024    0.0003 C   0  0  0  0  0  0  0  0  0  0  0  0
    2.0688   -0.9345   -0.0005 C   0  0  0  0  0  0  0  0  0  0  0  0
    3.3226   -1.5778   -0.0010 C   0  0  0  0  0  0  0  0  0  0  0  0
    3.3980   -2.9605   -0.0021 C   0  0  0  0  0  0  0  0  0  0  0  0
    2.2288   -3.7383   -0.0027 C   0  0  0  0  0  0  0  0  0  0  0  0
    0.9830   -3.1318   -0.0020 C   0  0  0  0  0  0  0  0  0  0  0  0
    0.8942   -1.7281   -0.0009 C   0  0  0  0  0  0  0  0  0  0  0  0
   -2.4943   -0.4824    0.0004 N   0  0  0  0  0  0  0  0  0  0  0  0
   -1.6830   -1.5034   -0.0001 N   0  0  0  0  0  0  0  0  0  0  0  0
   -1.7780    0.6904    0.0006 C   0  0  0  0  0  0  0  0  0  0  0  0
   -2.3201    2.1056    0.0008 C   0  0  0  0  0  0  0  0  0  0  0  0
   -1.9098    2.8443    1.0840 F   0  0  0  0  0  0  0  0  0  0  0  0
   -3.6831    2.1941    0.0006 F   0  0  0  0  0  0  0  0  0  0  0  0
   -1.9096    2.8446   -1.0822 F   0  0  0  0  0  0  0  0  0  0  0  0
    0.6119    2.2255    0.0009 H   0  0  0  0  0  0  0  0  0  0  0  0
    2.8885    1.0990    0.0006 H   0  0  0  0  0  0  0  0  0  0  0  0
    4.2391   -0.9687   -0.0005 H   0  0  0  0  0  0  0  0  0  0  0  0
    4.3797   -3.4586   -0.0025 H   0  0  0  0  0  0  0  0  0  0  0  0
    2.3065   -4.8363   -0.0037 H   0  0  0  0  0  0  0  0  0  0  0  0
    0.0608   -3.7346   -0.0025 H   0  0  0  0  0  0  0  0  0  0  0  0
  1  2  1  0  0  0  0
  1 10  1  0  0  0  0
  1 12  2  0  0  0  0
  2  3  1  0  0  0  0
  2 13  1  0  0  0  0
  3  4  2  0  0  0  0
  3 18  1  0  0  0  0
  4  5  1  0  0  0  0
  4 19  1  0  0  0  0
  5  6  2  0  0  0  0
  5 10  1  0  0  0  0
  6  7  1  0  0  0  0
  6 20  1  0  0  0  0
  7  8  2  0  0  0  0
  7 21  1  0  0  0  0
  8  9  1  0  0  0  0
  8 22  1  0  0  0  0
  9 10  2  0  0  0  0
  9 23  1  0  0  0  0
 11 12  1  0  0  0  0
 11 13  2  0  0  0  0
 13 14  1  0  0  0  0
 14 15  1  0  0  0  0
 14 16  1  0  0  0  0
 14 17  1  0  0  0  0
M  END
