./027210-18-0.hin
 OpenBabel10051109203D

 28 30  0  0  0  0  0  0  0  0999 V2000
   -3.1709   -3.1193   -0.0005 C   0  0  0  0  0  0  0  0  0  0  0  0
   -3.1259   -1.6961   -0.0008 O   0  0  0  0  0  0  0  0  0  0  0  0
   -1.8696   -1.1304   -0.0005 C   0  0  0  0  0  0  0  0  0  0  0  0
   -1.8555    0.3013   -0.0009 C   0  0  0  0  0  0  0  0  0  0  0  0
   -0.6482    0.9834   -0.0007 C   0  0  0  0  0  0  0  0  0  0  0  0
    0.5588    0.2599    0.0000 C   0  0  0  0  0  0  0  0  0  0  0  0
    0.5548   -1.1528    0.0006 C   0  0  0  0  0  0  0  0  0  0  0  0
   -0.6779   -1.8383    0.0002 C   0  0  0  0  0  0  0  0  0  0  0  0
    1.8018   -1.8746    0.0017 C   0  0  0  0  0  0  0  0  0  0  0  0
    3.0019   -1.2228    0.0021 C   0  0  0  0  0  0  0  0  0  0  0  0
    3.0363    0.1606    0.0014 N   0  0  0  0  0  0  0  0  0  0  0  0
    1.8347    0.9333    0.0003 C   0  0  0  0  0  0  0  0  0  0  0  0
    2.1905    2.2615   -0.0003 N   0  0  0  0  0  0  0  0  0  0  0  0
    3.5017    2.3507    0.0004 N   0  0  0  0  0  0  0  0  0  0  0  0
    4.0667    1.1088    0.0015 C   0  0  0  0  0  0  0  0  0  0  0  0
   -3.0984    0.8948   -0.0014 O   0  0  0  0  0  0  0  0  0  0  0  0
   -3.1079    2.3200   -0.0007 C   0  0  0  0  0  0  0  0  0  0  0  0
   -4.2686   -3.3406   -0.0007 H   0  0  0  0  0  0  0  0  0  0  0  0
   -2.6853   -3.5303   -0.9187 H   0  0  0  0  0  0  0  0  0  0  0  0
   -2.6856   -3.5299    0.9180 H   0  0  0  0  0  0  0  0  0  0  0  0
   -0.6125    2.0838   -0.0011 H   0  0  0  0  0  0  0  0  0  0  0  0
   -0.6738   -2.9377    0.0004 H   0  0  0  0  0  0  0  0  0  0  0  0
    1.7741   -2.9738    0.0022 H   0  0  0  0  0  0  0  0  0  0  0  0
    3.9784   -1.7349    0.0031 H   0  0  0  0  0  0  0  0  0  0  0  0
    5.1301    0.8617    0.0023 H   0  0  0  0  0  0  0  0  0  0  0  0
   -4.1998    2.5676   -0.0006 H   0  0  0  0  0  0  0  0  0  0  0  0
   -2.6119    2.7172    0.9179 H   0  0  0  0  0  0  0  0  0  0  0  0
   -2.6120    2.7181   -0.9191 H   0  0  0  0  0  0  0  0  0  0  0  0
  1  2  1  0  0  0  0
  1 18  1  0  0  0  0
  1 19  1  0  0  0  0
  1 20  1  0  0  0  0
  2  3  1  0  0  0  0
  3  4  2  0  0  0  0
  3  8  1  0  0  0  0
  4  5  1  0  0  0  0
  4 16  1  0  0  0  0
  5  6  2  0  0  0  0
  5 21  1  0  0  0  0
  6  7  1  0  0  0  0
  6 12  1  0  0  0  0
  7  8  2  0  0  0  0
  7  9  1  0  0  0  0
  8 22  1  0  0  0  0
  9 10  2  0  0  0  0
  9 23  1  0  0  0  0
 10 11  1  0  0  0  0
 10 24  1  0  0  0  0
 11 12  1  0  0  0  0
 11 15  1  0  0  0  0
 12 13  2  0  0  0  0
 13 14  1  0  0  0  0
 14 15  2  0  0  0  0
 15 25  1  0  0  0  0
 16 17  1  0  0  0  0
 17 26  1  0  0  0  0
 17 27  1  0  0  0  0
 17 28  1  0  0  0  0
M  END
