./028981-97-7.hin
 OpenBabel10051109203D

 35 38  0  0  0  0  0  0  0  0999 V2000
    0.3565   -2.3391    0.3534 C   0  0  0  0  0  0  0  0  0  0  0  0
   -1.3454   -4.1335   -0.0599 C   0  0  0  0  0  0  0  0  0  0  0  0
   -0.6511   -3.0061   -0.5135 C   0  0  0  0  0  0  0  0  0  0  0  0
   -0.8808   -2.5193   -1.8067 C   0  0  0  0  0  0  0  0  0  0  0  0
   -1.8069   -3.1514   -2.6337 C   0  0  0  0  0  0  0  0  0  0  0  0
   -2.5067   -4.2689   -2.1768 C   0  0  0  0  0  0  0  0  0  0  0  0
   -2.2751   -4.7578   -0.8917 C   0  0  0  0  0  0  0  0  0  0  0  0
    0.2016   -0.8629    0.4307 C   0  0  0  0  0  0  0  0  0  0  0  0
    1.2935    0.0393    0.4515 C   0  0  0  0  0  0  0  0  0  0  0  0
    2.6218   -0.4171    0.4026 N   0  0  0  0  0  0  0  0  0  0  0  0
    3.1406   -1.5449    1.0847 C   0  0  0  0  0  0  0  0  0  0  0  0
    2.2712   -2.5406    1.7883 C   0  0  0  0  0  0  0  0  0  0  0  0
    1.2256   -3.0749    0.9632 N   0  0  0  0  0  0  0  0  0  0  0  0
    1.0361    1.4271    0.5446 C   0  0  0  0  0  0  0  0  0  0  0  0
   -0.2634    1.9086    0.6146 C   0  0  0  0  0  0  0  0  0  0  0  0
   -1.3371    1.0124    0.6013 C   0  0  0  0  0  0  0  0  0  0  0  0
   -1.1036   -0.3588    0.5105 C   0  0  0  0  0  0  0  0  0  0  0  0
   -2.9272    1.5956    0.6984 Cl  0  0  0  0  0  0  0  0  0  0  0  0
    3.7599    0.2050   -0.1695 C   0  0  0  0  0  0  0  0  0  0  0  0
    4.8560   -0.5389    0.1726 N   0  0  0  0  0  0  0  0  0  0  0  0
    4.4917   -1.5689    0.9098 N   0  0  0  0  0  0  0  0  0  0  0  0
    3.7477    1.4166   -1.0194 C   0  0  0  0  0  0  0  0  0  0  0  0
   -1.1534   -4.5327    0.9477 H   0  0  0  0  0  0  0  0  0  0  0  0
   -0.3264   -1.6406   -2.1691 H   0  0  0  0  0  0  0  0  0  0  0  0
   -1.9828   -2.7688   -3.6499 H   0  0  0  0  0  0  0  0  0  0  0  0
   -3.2375   -4.7657   -2.8320 H   0  0  0  0  0  0  0  0  0  0  0  0
   -2.8208   -5.6428   -0.5323 H   0  0  0  0  0  0  0  0  0  0  0  0
    1.8560   -2.0627    2.7246 H   0  0  0  0  0  0  0  0  0  0  0  0
    2.9074   -3.4225    2.0971 H   0  0  0  0  0  0  0  0  0  0  0  0
    1.8735    2.1438    0.5770 H   0  0  0  0  0  0  0  0  0  0  0  0
   -0.4428    2.9931    0.6884 H   0  0  0  0  0  0  0  0  0  0  0  0
   -1.9521   -1.0649    0.4962 H   0  0  0  0  0  0  0  0  0  0  0  0
    3.9423    2.3216   -0.3895 H   0  0  0  0  0  0  0  0  0  0  0  0
    4.5554    1.3428   -1.7912 H   0  0  0  0  0  0  0  0  0  0  0  0
    2.7644    1.5364   -1.5378 H   0  0  0  0  0  0  0  0  0  0  0  0
  1  3  1  0  0  0  0
  1  8  1  0  0  0  0
  1 13  2  0  0  0  0
  2  3  2  0  0  0  0
  2  7  1  0  0  0  0
  2 23  1  0  0  0  0
  3  4  1  0  0  0  0
  4  5  2  0  0  0  0
  4 24  1  0  0  0  0
  5  6  1  0  0  0  0
  5 25  1  0  0  0  0
  6  7  2  0  0  0  0
  6 26  1  0  0  0  0
  7 27  1  0  0  0  0
  8  9  2  0  0  0  0
  8 17  1  0  0  0  0
  9 10  1  0  0  0  0
  9 14  1  0  0  0  0
 10 11  1  0  0  0  0
 10 19  1  0  0  0  0
 11 12  1  0  0  0  0
 11 21  2  0  0  0  0
 12 13  1  0  0  0  0
 12 28  1  0  0  0  0
 12 29  1  0  0  0  0
 14 15  2  0  0  0  0
 14 30  1  0  0  0  0
 15 16  1  0  0  0  0
 15 31  1  0  0  0  0
 16 17  2  0  0  0  0
 16 18  1  0  0  0  0
 17 32  1  0  0  0  0
 19 20  2  0  0  0  0
 19 22  1  0  0  0  0
 20 21  1  0  0  0  0
 22 33  1  0  0  0  0
 22 34  1  0  0  0  0
 22 35  1  0  0  0  0
M  END
