./029440-31-1.hin
 OpenBabel10051109203D

 29 29  0  0  0  0  0  0  0  0999 V2000
   -1.2993    0.4056    2.1773 C   0  0  0  0  0  0  0  0  0  0  0  0
   -0.7476   -0.6598    1.4149 N   0  0  0  0  0  0  0  0  0  0  0  0
   -0.7914   -1.9525    2.0262 C   0  0  0  0  0  0  0  0  0  0  0  0
    0.0179   -0.4912    0.0288 P   0  0  0  0  0  0  0  0  0  0  0  0
    0.8139   -1.6833   -0.3439 O   0  0  0  0  0  0  0  0  0  0  0  0
    1.0224    0.8430    0.1370 N   0  0  0  0  0  0  0  0  0  0  0  0
    1.4893    1.8628   -0.7635 C   0  0  0  0  0  0  0  0  0  0  0  0
    2.4774    2.5886   -0.1412 N   0  0  0  0  0  0  0  0  0  0  0  0
    2.5784    1.9891    1.1223 C   0  0  0  0  0  0  0  0  0  0  0  0
    1.7237    0.9523    1.2824 N   0  0  0  0  0  0  0  0  0  0  0  0
    0.9349    2.1559   -2.0209 N   0  0  0  0  0  0  0  0  0  0  0  0
   -1.0273   -0.1205   -1.1270 N   0  0  0  0  0  0  0  0  0  0  0  0
   -1.9544    0.9540   -1.0503 C   0  0  0  0  0  0  0  0  0  0  0  0
   -1.0868   -0.9208   -2.3080 C   0  0  0  0  0  0  0  0  0  0  0  0
   -1.0506    1.3920    1.7064 H   0  0  0  0  0  0  0  0  0  0  0  0
   -2.4204    0.3154    2.2551 H   0  0  0  0  0  0  0  0  0  0  0  0
   -0.8943    0.4113    3.2291 H   0  0  0  0  0  0  0  0  0  0  0  0
   -0.2359   -2.6893    1.3823 H   0  0  0  0  0  0  0  0  0  0  0  0
   -0.3202   -1.9397    3.0496 H   0  0  0  0  0  0  0  0  0  0  0  0
   -1.8553   -2.2990    2.1581 H   0  0  0  0  0  0  0  0  0  0  0  0
    3.2895    2.3311    1.8825 H   0  0  0  0  0  0  0  0  0  0  0  0
    0.8188    1.3609   -2.6154 H   0  0  0  0  0  0  0  0  0  0  0  0
    1.4258    2.8989   -2.4791 H   0  0  0  0  0  0  0  0  0  0  0  0
   -3.0173    0.5851   -0.9780 H   0  0  0  0  0  0  0  0  0  0  0  0
   -1.7280    1.5824   -0.1498 H   0  0  0  0  0  0  0  0  0  0  0  0
   -1.8953    1.6117   -1.9631 H   0  0  0  0  0  0  0  0  0  0  0  0
   -2.1150   -1.3569   -2.4547 H   0  0  0  0  0  0  0  0  0  0  0  0
   -0.8593   -0.3078   -3.2264 H   0  0  0  0  0  0  0  0  0  0  0  0
   -0.3402   -1.7596   -2.2304 H   0  0  0  0  0  0  0  0  0  0  0  0
  1  2  1  0  0  0  0
  1 15  1  0  0  0  0
  1 16  1  0  0  0  0
  1 17  1  0  0  0  0
  2  3  1  0  0  0  0
  2  4  1  0  0  0  0
  3 18  1  0  0  0  0
  3 19  1  0  0  0  0
  3 20  1  0  0  0  0
  4  5  2  0  0  0  0
  4  6  1  0  0  0  0
  4 12  1  0  0  0  0
  6  7  1  0  0  0  0
  6 10  1  0  0  0  0
  7  8  2  0  0  0  0
  7 11  1  0  0  0  0
  8  9  1  0  0  0  0
  9 10  2  0  0  0  0
  9 21  1  0  0  0  0
 11 22  1  0  0  0  0
 11 23  1  0  0  0  0
 12 13  1  0  0  0  0
 12 14  1  0  0  0  0
 13 24  1  0  0  0  0
 13 25  1  0  0  0  0
 13 26  1  0  0  0  0
 14 27  1  0  0  0  0
 14 28  1  0  0  0  0
 14 29  1  0  0  0  0
M  END
