./029878-31-7.hin
 OpenBabel10051109203D

 17 18  0  0  0  0  0  0  0  0999 V2000
   -2.2320   -1.6598   -0.0000 C   0  0  0  0  0  0  0  0  0  0  0  0
   -2.2750   -0.2874   -0.0000 C   0  0  0  0  0  0  0  0  0  0  0  0
   -1.0298    0.4069   -0.0000 C   0  0  0  0  0  0  0  0  0  0  0  0
   -1.0059   -2.3884   -0.0000 C   0  0  0  0  0  0  0  0  0  0  0  0
    0.2147   -1.7701   -0.0000 C   0  0  0  0  0  0  0  0  0  0  0  0
    0.2397   -0.3501   -0.0000 C   0  0  0  0  0  0  0  0  0  0  0  0
   -3.5392    0.4779    0.0000 C   0  0  0  0  0  0  0  0  0  0  0  0
   -0.7005    1.7426   -0.0000 N   0  0  0  0  0  0  0  0  0  0  0  0
    0.6306    1.7497    0.0000 N   0  0  0  0  0  0  0  0  0  0  0  0
    1.2578    0.5753    0.0000 N   0  0  0  0  0  0  0  0  0  0  0  0
    1.1441    2.6119    0.0000 H   0  0  0  0  0  0  0  0  0  0  0  0
   -3.1711   -2.2356   -0.0000 H   0  0  0  0  0  0  0  0  0  0  0  0
   -1.0653   -3.4883   -0.0000 H   0  0  0  0  0  0  0  0  0  0  0  0
    1.1584   -2.3328   -0.0000 H   0  0  0  0  0  0  0  0  0  0  0  0
   -3.5924    1.1334   -0.9056 H   0  0  0  0  0  0  0  0  0  0  0  0
   -4.4257   -0.2022   -0.0000 H   0  0  0  0  0  0  0  0  0  0  0  0
   -3.5924    1.1334    0.9057 H   0  0  0  0  0  0  0  0  0  0  0  0
  1  2  2  0  0  0  0
  1  4  1  0  0  0  0
  1 12  1  0  0  0  0
  2  3  1  0  0  0  0
  2  7  1  0  0  0  0
  3  6  1  0  0  0  0
  3  8  2  0  0  0  0
  4  5  2  0  0  0  0
  4 13  1  0  0  0  0
  5  6  1  0  0  0  0
  5 14  1  0  0  0  0
  6 10  2  0  0  0  0
  7 15  1  0  0  0  0
  7 16  1  0  0  0  0
  7 17  1  0  0  0  0
  8  9  1  0  0  0  0
  9 10  1  0  0  0  0
  9 11  1  0  0  0  0
M  END
