./034771-66-9.hin
 OpenBabel10051109203D

 43 47  0  0  0  0  0  0  0  0999 V2000
    2.8917    0.6587   -0.0927 C   0  0  0  0  0  0  0  0  0  0  0  0
    2.8411    2.1323    0.0043 C   0  0  0  0  0  0  0  0  0  0  0  0
    1.6320    2.7584    0.1245 C   0  0  0  0  0  0  0  0  0  0  0  0
    0.4238    1.9815    0.1415 C   0  0  0  0  0  0  0  0  0  0  0  0
   -0.8502    2.5639    0.2590 C   0  0  0  0  0  0  0  0  0  0  0  0
   -1.9927    1.7834    0.2678 C   0  0  0  0  0  0  0  0  0  0  0  0
   -1.8926    0.3717    0.1598 C   0  0  0  0  0  0  0  0  0  0  0  0
   -0.6337   -0.2383    0.0403 C   0  0  0  0  0  0  0  0  0  0  0  0
    0.5047    0.5830    0.0335 C   0  0  0  0  0  0  0  0  0  0  0  0
    1.7136   -0.0740   -0.0798 O   0  0  0  0  0  0  0  0  0  0  0  0
    3.8649   -0.0888   -0.1828 O   0  0  0  0  0  0  0  0  0  0  0  0
   -3.0810   -1.7473   -0.1591 N   0  0  0  0  0  0  0  0  0  0  0  0
   -3.0797   -0.4336    0.1755 N   0  0  0  0  0  0  0  0  0  0  0  0
   -4.2963    0.0566    0.5282 N   0  0  0  0  0  0  0  0  0  0  0  0
   -5.1553   -0.9862    0.4224 C   0  0  0  0  0  0  0  0  0  0  0  0
   -4.3698   -2.1564   -0.0246 C   0  0  0  0  0  0  0  0  0  0  0  0
   -4.8579   -3.5008   -0.2707 C   0  0  0  0  0  0  0  0  0  0  0  0
   -6.1105   -3.6967   -0.8694 C   0  0  0  0  0  0  0  0  0  0  0  0
   -6.5799   -4.9879   -1.1005 C   0  0  0  0  0  0  0  0  0  0  0  0
   -5.8059   -6.0911   -0.7400 C   0  0  0  0  0  0  0  0  0  0  0  0
   -4.5566   -5.9007   -0.1500 C   0  0  0  0  0  0  0  0  0  0  0  0
   -4.0792   -4.6121    0.0838 C   0  0  0  0  0  0  0  0  0  0  0  0
   -6.5978   -0.9540    0.7133 C   0  0  0  0  0  0  0  0  0  0  0  0
    4.0660    2.8410   -0.0478 N   0  0  0  0  0  0  0  0  0  0  0  0
    4.1275    4.1685   -0.3210 N   0  0  0  0  0  0  0  0  0  0  0  0
    5.4271    4.5241   -0.2504 C   0  0  0  0  0  0  0  0  0  0  0  0
    6.2424    3.3705    0.0901 C   0  0  0  0  0  0  0  0  0  0  0  0
    5.3408    2.3053    0.2158 C   0  0  0  0  0  0  0  0  0  0  0  0
    7.8924    3.3409    0.2836 Cl  0  0  0  0  0  0  0  0  0  0  0  0
    1.5376    3.8554    0.2012 H   0  0  0  0  0  0  0  0  0  0  0  0
   -0.9345    3.6593    0.3428 H   0  0  0  0  0  0  0  0  0  0  0  0
   -2.9747    2.2752    0.3600 H   0  0  0  0  0  0  0  0  0  0  0  0
   -0.5008   -1.3284   -0.0497 H   0  0  0  0  0  0  0  0  0  0  0  0
   -6.7183   -2.8280   -1.1653 H   0  0  0  0  0  0  0  0  0  0  0  0
   -7.5627   -5.1355   -1.5720 H   0  0  0  0  0  0  0  0  0  0  0  0
   -6.1794   -7.1093   -0.9234 H   0  0  0  0  0  0  0  0  0  0  0  0
   -3.9424   -6.7691    0.1311 H   0  0  0  0  0  0  0  0  0  0  0  0
   -3.0908   -4.4681    0.5461 H   0  0  0  0  0  0  0  0  0  0  0  0
   -7.1648   -0.6583   -0.2062 H   0  0  0  0  0  0  0  0  0  0  0  0
   -6.9377   -1.9709    1.0336 H   0  0  0  0  0  0  0  0  0  0  0  0
   -6.8354   -0.2214    1.5246 H   0  0  0  0  0  0  0  0  0  0  0  0
    5.7659    5.5450   -0.4349 H   0  0  0  0  0  0  0  0  0  0  0  0
    5.5020    1.2483    0.4447 H   0  0  0  0  0  0  0  0  0  0  0  0
  1  2  1  0  0  0  0
  1 10  1  0  0  0  0
  1 11  2  0  0  0  0
  2  3  2  0  0  0  0
  2 24  1  0  0  0  0
  3  4  1  0  0  0  0
  3 30  1  0  0  0  0
  4  5  2  0  0  0  0
  4  9  1  0  0  0  0
  5  6  1  0  0  0  0
  5 31  1  0  0  0  0
  6  7  2  0  0  0  0
  6 32  1  0  0  0  0
  7  8  1  0  0  0  0
  7 13  1  0  0  0  0
  8  9  2  0  0  0  0
  8 33  1  0  0  0  0
  9 10  1  0  0  0  0
 12 13  1  0  0  0  0
 12 16  2  0  0  0  0
 13 14  1  0  0  0  0
 14 15  2  0  0  0  0
 15 16  1  0  0  0  0
 15 23  1  0  0  0  0
 16 17  1  0  0  0  0
 17 18  2  0  0  0  0
 17 22  1  0  0  0  0
 18 19  1  0  0  0  0
 18 34  1  0  0  0  0
 19 20  2  0  0  0  0
 19 35  1  0  0  0  0
 20 21  1  0  0  0  0
 20 36  1  0  0  0  0
 21 22  2  0  0  0  0
 21 37  1  0  0  0  0
 22 38  1  0  0  0  0
 23 39  1  0  0  0  0
 23 40  1  0  0  0  0
 23 41  1  0  0  0  0
 24 25  1  0  0  0  0
 24 28  1  0  0  0  0
 25 26  2  0  0  0  0
 26 27  1  0  0  0  0
 26 42  1  0  0  0  0
 27 28  2  0  0  0  0
 27 29  1  0  0  0  0
 28 43  1  0  0  0  0
M  END
