./036325-69-6.hin
 OpenBabel10051109203D

 36 38  0  0  0  0  0  0  0  0999 V2000
   -1.3156    4.4252    0.0000 C   0  0  0  0  0  0  0  0  0  0  0  0
   -0.8148    5.8397   -0.0000 C   0  0  0  0  0  0  0  0  0  0  0  0
    0.4686    6.2112    0.0000 C   0  0  0  0  0  0  0  0  0  0  0  0
   -2.5415    4.2036    0.0000 O   0  0  0  0  0  0  0  0  0  0  0  0
   -0.3732    3.4049   -0.0000 N   0  0  0  0  0  0  0  0  0  0  0  0
   -1.9159    6.8384   -0.0000 C   0  0  0  0  0  0  0  0  0  0  0  0
   -0.8864   -2.1444    0.0000 N   0  0  0  0  0  0  0  0  0  0  0  0
    0.4389   -2.3714    0.0000 N   0  0  0  0  0  0  0  0  0  0  0  0
    1.2233   -1.2641   -0.0000 N   0  0  0  0  0  0  0  0  0  0  0  0
    0.3467   -0.2122   -0.0000 C   0  0  0  0  0  0  0  0  0  0  0  0
   -1.0125   -0.7800    0.0000 C   0  0  0  0  0  0  0  0  0  0  0  0
    0.5360    1.1904   -0.0000 C   0  0  0  0  0  0  0  0  0  0  0  0
   -0.5843    2.0154   -0.0000 C   0  0  0  0  0  0  0  0  0  0  0  0
   -1.9138    1.4447   -0.0000 C   0  0  0  0  0  0  0  0  0  0  0  0
   -2.1287    0.0968    0.0000 C   0  0  0  0  0  0  0  0  0  0  0  0
    1.0322   -3.6896    0.0000 C   0  0  0  0  0  0  0  0  0  0  0  0
    0.2707   -4.8887    0.0000 C   0  0  0  0  0  0  0  0  0  0  0  0
    0.9202   -6.1371    0.0000 C   0  0  0  0  0  0  0  0  0  0  0  0
    2.3050   -6.2172    0.0000 C   0  0  0  0  0  0  0  0  0  0  0  0
    3.0622   -5.0467    0.0000 C   0  0  0  0  0  0  0  0  0  0  0  0
    2.4416   -3.8033    0.0000 C   0  0  0  0  0  0  0  0  0  0  0  0
   -1.1000   -4.8326   -0.0000 O   0  0  0  0  0  0  0  0  0  0  0  0
    0.7489    7.2756    0.0000 H   0  0  0  0  0  0  0  0  0  0  0  0
    1.3275    5.5296    0.0000 H   0  0  0  0  0  0  0  0  0  0  0  0
    0.5859    3.6747   -0.0000 H   0  0  0  0  0  0  0  0  0  0  0  0
   -1.5184    7.8818   -0.0000 H   0  0  0  0  0  0  0  0  0  0  0  0
   -2.5600    6.6930   -0.9036 H   0  0  0  0  0  0  0  0  0  0  0  0
   -2.5600    6.6930    0.9036 H   0  0  0  0  0  0  0  0  0  0  0  0
    1.5626    1.5840   -0.0000 H   0  0  0  0  0  0  0  0  0  0  0  0
   -2.7863    2.1210   -0.0000 H   0  0  0  0  0  0  0  0  0  0  0  0
   -3.1470   -0.3203    0.0000 H   0  0  0  0  0  0  0  0  0  0  0  0
    0.3126   -7.0546   -0.0000 H   0  0  0  0  0  0  0  0  0  0  0  0
    2.8004   -7.1995    0.0000 H   0  0  0  0  0  0  0  0  0  0  0  0
    4.1611   -5.1008    0.0000 H   0  0  0  0  0  0  0  0  0  0  0  0
    3.0816   -2.9046    0.0000 H   0  0  0  0  0  0  0  0  0  0  0  0
   -1.4366   -5.7423   -0.0000 H   0  0  0  0  0  0  0  0  0  0  0  0
  1  2  1  0  0  0  0
  1  4  2  0  0  0  0
  1  5  1  0  0  0  0
  2  3  2  0  0  0  0
  2  6  1  0  0  0  0
  3 23  1  0  0  0  0
  3 24  1  0  0  0  0
  5 13  1  0  0  0  0
  5 25  1  0  0  0  0
  6 26  1  0  0  0  0
  6 27  1  0  0  0  0
  6 28  1  0  0  0  0
  7  8  1  0  0  0  0
  7 11  2  0  0  0  0
  8  9  1  0  0  0  0
  8 16  1  0  0  0  0
  9 10  2  0  0  0  0
 10 11  1  0  0  0  0
 10 12  1  0  0  0  0
 11 15  1  0  0  0  0
 12 13  2  0  0  0  0
 12 29  1  0  0  0  0
 13 14  1  0  0  0  0
 14 15  2  0  0  0  0
 14 30  1  0  0  0  0
 15 31  1  0  0  0  0
 16 17  2  0  0  0  0
 16 21  1  0  0  0  0
 17 18  1  0  0  0  0
 17 22  1  0  0  0  0
 18 19  2  0  0  0  0
 18 32  1  0  0  0  0
 19 20  1  0  0  0  0
 19 33  1  0  0  0  0
 20 21  2  0  0  0  0
 20 34  1  0  0  0  0
 21 35  1  0  0  0  0
 22 36  1  0  0  0  0
M  END
