./036411-52-6.hin
 OpenBabel10051109203D

 23 24  0  0  0  0  0  0  0  0999 V2000
   -2.1949   -2.9102   -0.0000 C   0  0  0  0  0  0  0  0  0  0  0  0
   -3.4942   -2.3993   -0.0000 C   0  0  0  0  0  0  0  0  0  0  0  0
   -3.6997   -1.0266   -0.0000 C   0  0  0  0  0  0  0  0  0  0  0  0
   -2.5946   -0.1559   -0.0000 C   0  0  0  0  0  0  0  0  0  0  0  0
   -1.2709   -0.6592   -0.0000 C   0  0  0  0  0  0  0  0  0  0  0  0
   -1.1012   -2.0488   -0.0000 C   0  0  0  0  0  0  0  0  0  0  0  0
   -0.1583    0.3346   -0.0000 C   0  0  0  0  0  0  0  0  0  0  0  0
   -0.3724    1.5522   -0.0000 O   0  0  0  0  0  0  0  0  0  0  0  0
    1.1512   -0.1766    0.0000 N   0  0  0  0  0  0  0  0  0  0  0  0
    2.3103    0.6022    0.0000 C   0  0  0  0  0  0  0  0  0  0  0  0
    2.4548    1.9676    0.0000 N   0  0  0  0  0  0  0  0  0  0  0  0
    3.8476    2.1440    0.0000 C   0  0  0  0  0  0  0  0  0  0  0  0
    4.5492    0.9773    0.0000 N   0  0  0  0  0  0  0  0  0  0  0  0
    3.6211    0.0173   -0.0000 N   0  0  0  0  0  0  0  0  0  0  0  0
   -2.7512    1.2026   -0.0000 O   0  0  0  0  0  0  0  0  0  0  0  0
   -2.0338   -3.9981   -0.0000 H   0  0  0  0  0  0  0  0  0  0  0  0
   -4.3560   -3.0843   -0.0000 H   0  0  0  0  0  0  0  0  0  0  0  0
   -4.7187   -0.6131   -0.0000 H   0  0  0  0  0  0  0  0  0  0  0  0
   -0.1012   -2.5078   -0.0000 H   0  0  0  0  0  0  0  0  0  0  0  0
    1.2866   -1.1596    0.0000 H   0  0  0  0  0  0  0  0  0  0  0  0
    4.3061    3.1385    0.0000 H   0  0  0  0  0  0  0  0  0  0  0  0
   -3.7014    1.3993   -0.0000 H   0  0  0  0  0  0  0  0  0  0  0  0
    3.8748   -0.9394    0.0000 H   0  0  0  0  0  0  0  0  0  0  0  0
  1  2  2  0  0  0  0
  1  6  1  0  0  0  0
  1 16  1  0  0  0  0
  2  3  1  0  0  0  0
  2 17  1  0  0  0  0
  3  4  2  0  0  0  0
  3 18  1  0  0  0  0
  4  5  1  0  0  0  0
  4 15  1  0  0  0  0
  5  6  2  0  0  0  0
  5  7  1  0  0  0  0
  6 19  1  0  0  0  0
  7  8  2  0  0  0  0
  7  9  1  0  0  0  0
  9 10  1  0  0  0  0
  9 20  1  0  0  0  0
 10 11  2  0  0  0  0
 10 14  1  0  0  0  0
 11 12  1  0  0  0  0
 12 13  2  0  0  0  0
 12 21  1  0  0  0  0
 13 14  1  0  0  0  0
 14 23  1  0  0  0  0
 15 22  1  0  0  0  0
M  END
