./038942-51-7.hin
 OpenBabel10051109203D

 22 23  0  0  0  0  0  0  0  0999 V2000
   -0.5349   -1.1821    0.0000 N   0  0  0  0  0  0  0  0  0  0  0  0
   -0.5035    0.2415    0.0000 C   0  0  0  0  0  0  0  0  0  0  0  0
   -1.7801    0.7087   -0.0000 N   0  0  0  0  0  0  0  0  0  0  0  0
   -2.5886   -0.3589    0.0000 N   0  0  0  0  0  0  0  0  0  0  0  0
   -1.8942   -1.5838    0.0000 C   0  0  0  0  0  0  0  0  0  0  0  0
   -2.5002   -3.0464    0.0000 S   0  0  0  0  0  0  0  0  0  0  0  0
    0.6740    1.1144    0.0000 C   0  0  0  0  0  0  0  0  0  0  0  0
    0.4670    2.5073    0.0000 C   0  0  0  0  0  0  0  0  0  0  0  0
    1.5498    3.3828    0.0000 C   0  0  0  0  0  0  0  0  0  0  0  0
    2.8546    2.8908   -0.0000 C   0  0  0  0  0  0  0  0  0  0  0  0
    3.0676    1.5141   -0.0000 C   0  0  0  0  0  0  0  0  0  0  0  0
    1.9881    0.6307   -0.0000 C   0  0  0  0  0  0  0  0  0  0  0  0
    0.5345   -2.1254   -0.0000 C   0  0  0  0  0  0  0  0  0  0  0  0
   -3.5785   -0.2522   -0.0000 H   0  0  0  0  0  0  0  0  0  0  0  0
   -0.5521    2.9259    0.0000 H   0  0  0  0  0  0  0  0  0  0  0  0
    1.3704    4.4687    0.0000 H   0  0  0  0  0  0  0  0  0  0  0  0
    3.7085    3.5841   -0.0000 H   0  0  0  0  0  0  0  0  0  0  0  0
    4.0933    1.1156   -0.0000 H   0  0  0  0  0  0  0  0  0  0  0  0
    2.2089   -0.4449   -0.0000 H   0  0  0  0  0  0  0  0  0  0  0  0
    1.1649   -1.9974    0.9210 H   0  0  0  0  0  0  0  0  0  0  0  0
    0.0940   -3.1655   -0.0000 H   0  0  0  0  0  0  0  0  0  0  0  0
    1.1649   -1.9974   -0.9210 H   0  0  0  0  0  0  0  0  0  0  0  0
  1  2  1  0  0  0  0
  1  5  1  0  0  0  0
  1 13  1  0  0  0  0
  2  3  2  0  0  0  0
  2  7  1  0  0  0  0
  3  4  1  0  0  0  0
  4  5  1  0  0  0  0
  4 14  1  0  0  0  0
  5  6  2  0  0  0  0
  7  8  2  0  0  0  0
  7 12  1  0  0  0  0
  8  9  1  0  0  0  0
  8 15  1  0  0  0  0
  9 10  2  0  0  0  0
  9 16  1  0  0  0  0
 10 11  1  0  0  0  0
 10 17  1  0  0  0  0
 11 12  2  0  0  0  0
 11 18  1  0  0  0  0
 12 19  1  0  0  0  0
 13 20  1  0  0  0  0
 13 21  1  0  0  0  0
 13 22  1  0  0  0  0
M  END
