./041735-42-6.hin
 OpenBabel10051109203D

 22 23  0  0  0  0  0  0  0  0999 V2000
    0.3925   -1.5324    0.0170 C   0  0  0  0  0  0  0  0  0  0  0  0
    0.3193   -0.0940    0.0490 C   0  0  0  0  0  0  0  0  0  0  0  0
    1.5238    0.6166   -0.0101 O   0  0  0  0  0  0  0  0  0  0  0  0
    1.1491    1.9730    0.0376 C   0  0  0  0  0  0  0  0  0  0  0  0
   -0.2310    2.1078    0.1239 C   0  0  0  0  0  0  0  0  0  0  0  0
   -0.7640    0.7718    0.1311 C   0  0  0  0  0  0  0  0  0  0  0  0
    2.2243    2.9580   -0.0097 N   0  3  0  0  0  0  0  0  0  0  0  0
    3.3612    2.5834   -0.0850 O   0  0  0  0  0  0  0  0  0  0  0  0
    1.9176    4.1194    0.0290 O   0  5  0  0  0  0  0  0  0  0  0  0
   -0.6945   -2.3588    0.0339 N   0  0  0  0  0  0  0  0  0  0  0  0
   -0.1146   -3.6572    0.0002 C   0  0  0  0  0  0  0  0  0  0  0  0
    1.2800   -3.6044   -0.0533 N   0  0  0  0  0  0  0  0  0  0  0  0
    1.5765   -2.3005   -0.0387 N   0  0  0  0  0  0  0  0  0  0  0  0
   -0.8587   -4.8397    0.1219 N   0  0  0  0  0  0  0  0  0  0  0  0
    2.9182   -1.7646   -0.0592 C   0  0  0  0  0  0  0  0  0  0  0  0
   -0.7946    3.0394    0.1759 H   0  0  0  0  0  0  0  0  0  0  0  0
   -1.8155    0.4942    0.1908 H   0  0  0  0  0  0  0  0  0  0  0  0
   -1.8072   -4.7345   -0.1729 H   0  0  0  0  0  0  0  0  0  0  0  0
   -0.4074   -5.6303   -0.2888 H   0  0  0  0  0  0  0  0  0  0  0  0
    3.6742   -2.5923   -0.0923 H   0  0  0  0  0  0  0  0  0  0  0  0
    3.0326   -1.1090   -0.9644 H   0  0  0  0  0  0  0  0  0  0  0  0
    3.0754   -1.1441    0.8641 H   0  0  0  0  0  0  0  0  0  0  0  0
  1  2  1  0  0  0  0
  1 10  2  0  0  0  0
  1 13  1  0  0  0  0
  2  3  1  0  0  0  0
  2  6  2  0  0  0  0
  3  4  1  0  0  0  0
  4  5  2  0  0  0  0
  4  7  1  0  0  0  0
  5  6  1  0  0  0  0
  5 16  1  0  0  0  0
  6 17  1  0  0  0  0
  7  8  2  0  0  0  0
  7  9  1  0  0  0  0
 10 11  1  0  0  0  0
 11 12  2  0  0  0  0
 11 14  1  0  0  0  0
 12 13  1  0  0  0  0
 13 15  1  0  0  0  0
 14 18  1  0  0  0  0
 14 19  1  0  0  0  0
 15 20  1  0  0  0  0
 15 21  1  0  0  0  0
 15 22  1  0  0  0  0
M  CHG  2   7   1   9  -1
M  END
