./041735-44-8.hin
 OpenBabel10051109203D

 32 33  0  0  0  0  0  0  0  0999 V2000
   -3.7464   -0.2188   -0.9504 C   0  0  0  0  0  0  0  0  0  0  0  0
   -5.0264   -0.9656   -1.1895 C   0  0  0  0  0  0  0  0  0  0  0  0
   -3.5193    0.8865   -1.4642 O   0  0  0  0  0  0  0  0  0  0  0  0
   -2.7569   -0.7903   -0.1034 N   0  0  0  0  0  0  0  0  0  0  0  0
   -1.5857   -0.0151    0.1147 C   0  0  0  0  0  0  0  0  0  0  0  0
   -1.5558    1.1548    0.8630 N   0  0  0  0  0  0  0  0  0  0  0  0
   -0.3009    1.5923    0.7681 N   0  0  0  0  0  0  0  0  0  0  0  0
    0.4646    0.7037   -0.0350 C   0  0  0  0  0  0  0  0  0  0  0  0
   -0.3216   -0.3191   -0.4583 N   0  0  0  0  0  0  0  0  0  0  0  0
    1.8641    0.8910   -0.3421 C   0  0  0  0  0  0  0  0  0  0  0  0
    2.6805   -0.2287   -0.1625 O   0  0  0  0  0  0  0  0  0  0  0  0
    3.9646    0.1909   -0.5480 C   0  0  0  0  0  0  0  0  0  0  0  0
    3.9573    1.5193   -0.9560 C   0  0  0  0  0  0  0  0  0  0  0  0
    2.5970    1.9686   -0.8197 C   0  0  0  0  0  0  0  0  0  0  0  0
    5.0466   -0.7894   -0.4628 N   0  3  0  0  0  0  0  0  0  0  0  0
    4.8133   -1.8906   -0.0546 O   0  0  0  0  0  0  0  0  0  0  0  0
    6.1412   -0.4323   -0.8082 O   0  5  0  0  0  0  0  0  0  0  0  0
    0.1728    2.8108    1.3845 C   0  0  0  0  0  0  0  0  0  0  0  0
   -2.8210   -2.0752    0.4794 C   0  0  0  0  0  0  0  0  0  0  0  0
   -3.8107   -2.7985    0.2848 O   0  0  0  0  0  0  0  0  0  0  0  0
   -1.6684   -2.5314    1.3335 C   0  0  0  0  0  0  0  0  0  0  0  0
   -4.8157   -1.9370   -1.7025 H   0  0  0  0  0  0  0  0  0  0  0  0
   -5.5386   -1.1870   -0.2207 H   0  0  0  0  0  0  0  0  0  0  0  0
   -5.6899   -0.3367   -1.8319 H   0  0  0  0  0  0  0  0  0  0  0  0
    4.8082    2.1002   -1.3111 H   0  0  0  0  0  0  0  0  0  0  0  0
    2.2264    2.9607   -1.0701 H   0  0  0  0  0  0  0  0  0  0  0  0
   -0.0672    2.8031    2.4817 H   0  0  0  0  0  0  0  0  0  0  0  0
    1.2835    2.8735    1.2397 H   0  0  0  0  0  0  0  0  0  0  0  0
   -0.3244    3.6970    0.9052 H   0  0  0  0  0  0  0  0  0  0  0  0
   -1.9912   -3.4337    1.9097 H   0  0  0  0  0  0  0  0  0  0  0  0
   -0.8055   -2.8097    0.6785 H   0  0  0  0  0  0  0  0  0  0  0  0
   -1.3459   -1.7370    2.0481 H   0  0  0  0  0  0  0  0  0  0  0  0
  1  2  1  0  0  0  0
  1  3  2  0  0  0  0
  1  4  1  0  0  0  0
  2 22  1  0  0  0  0
  2 23  1  0  0  0  0
  2 24  1  0  0  0  0
  4  5  1  0  0  0  0
  4 19  1  0  0  0  0
  5  6  2  0  0  0  0
  5  9  1  0  0  0  0
  6  7  1  0  0  0  0
  7  8  1  0  0  0  0
  7 18  1  0  0  0  0
  8  9  2  0  0  0  0
  8 10  1  0  0  0  0
 10 11  1  0  0  0  0
 10 14  2  0  0  0  0
 11 12  1  0  0  0  0
 12 13  2  0  0  0  0
 12 15  1  0  0  0  0
 13 14  1  0  0  0  0
 13 25  1  0  0  0  0
 14 26  1  0  0  0  0
 15 16  2  0  0  0  0
 15 17  1  0  0  0  0
 18 27  1  0  0  0  0
 18 28  1  0  0  0  0
 18 29  1  0  0  0  0
 19 20  2  0  0  0  0
 19 21  1  0  0  0  0
 21 30  1  0  0  0  0
 21 31  1  0  0  0  0
 21 32  1  0  0  0  0
M  CHG  2  15   1  17  -1
M  END
