./041735-45-9.hin
 OpenBabel10051109203D

 25 26  0  0  0  0  0  0  0  0999 V2000
   -0.8115   -1.5995    0.2288 N   0  0  0  0  0  0  0  0  0  0  0  0
   -2.2330    0.1307   -0.1506 N   0  0  0  0  0  0  0  0  0  0  0  0
   -0.8888   -0.2492    0.0788 C   0  0  0  0  0  0  0  0  0  0  0  0
    0.2117    0.6837    0.1393 C   0  0  0  0  0  0  0  0  0  0  0  0
    1.4631    0.1907   -0.2367 O   0  0  0  0  0  0  0  0  0  0  0  0
    2.3463    1.2715   -0.0733 C   0  0  0  0  0  0  0  0  0  0  0  0
    1.6789    2.4002    0.3877 C   0  0  0  0  0  0  0  0  0  0  0  0
    0.3002    2.0171    0.5228 C   0  0  0  0  0  0  0  0  0  0  0  0
    3.7539    1.0473   -0.3951 N   0  3  0  0  0  0  0  0  0  0  0  0
    4.1066   -0.0253   -0.7940 O   0  0  0  0  0  0  0  0  0  0  0  0
    4.5071    1.9728   -0.2438 O   0  5  0  0  0  0  0  0  0  0  0  0
   -2.1654   -2.0232    0.0998 C   0  0  0  0  0  0  0  0  0  0  0  0
   -3.0243   -0.9506   -0.1404 N   0  0  0  0  0  0  0  0  0  0  0  0
   -2.5999   -3.3459    0.3039 N   0  0  0  0  0  0  0  0  0  0  0  0
   -1.6243   -4.3898    0.1302 C   0  0  0  0  0  0  0  0  0  0  0  0
   -2.7150    1.4771   -0.3344 C   0  0  0  0  0  0  0  0  0  0  0  0
    2.1147    3.3751    0.6044 H   0  0  0  0  0  0  0  0  0  0  0  0
   -0.5054    2.6557    0.8784 H   0  0  0  0  0  0  0  0  0  0  0  0
   -3.4665   -3.5310   -0.1649 H   0  0  0  0  0  0  0  0  0  0  0  0
   -2.1321   -5.3674    0.3452 H   0  0  0  0  0  0  0  0  0  0  0  0
   -1.1892   -4.4248   -0.9052 H   0  0  0  0  0  0  0  0  0  0  0  0
   -0.7864   -4.2465    0.8628 H   0  0  0  0  0  0  0  0  0  0  0  0
   -1.9508    2.0559   -0.9188 H   0  0  0  0  0  0  0  0  0  0  0  0
   -3.6892    1.4713   -0.8924 H   0  0  0  0  0  0  0  0  0  0  0  0
   -2.8690    1.9619    0.6676 H   0  0  0  0  0  0  0  0  0  0  0  0
  1  3  2  0  0  0  0
  1 12  1  0  0  0  0
  2  3  1  0  0  0  0
  2 13  1  0  0  0  0
  2 16  1  0  0  0  0
  3  4  1  0  0  0  0
  4  5  1  0  0  0  0
  4  8  2  0  0  0  0
  5  6  1  0  0  0  0
  6  7  2  0  0  0  0
  6  9  1  0  0  0  0
  7  8  1  0  0  0  0
  7 17  1  0  0  0  0
  8 18  1  0  0  0  0
  9 10  2  0  0  0  0
  9 11  1  0  0  0  0
 12 13  2  0  0  0  0
 12 14  1  0  0  0  0
 14 15  1  0  0  0  0
 14 19  1  0  0  0  0
 15 20  1  0  0  0  0
 15 21  1  0  0  0  0
 15 22  1  0  0  0  0
 16 23  1  0  0  0  0
 16 24  1  0  0  0  0
 16 25  1  0  0  0  0
M  CHG  2   9   1  11  -1
M  END
