./041735-50-6.hin
 OpenBabel10051109203D

 32 33  0  0  0  0  0  0  0  0999 V2000
   -0.2282    0.1827   -0.1787 N   0  0  0  0  0  0  0  0  0  0  0  0
   -0.1515    0.8099   -2.3583 N   0  0  0  0  0  0  0  0  0  0  0  0
    0.3491    1.0797   -1.0941 C   0  0  0  0  0  0  0  0  0  0  0  0
    1.2969    2.1208   -0.8130 C   0  0  0  0  0  0  0  0  0  0  0  0
    1.6437    2.3561    0.5211 O   0  0  0  0  0  0  0  0  0  0  0  0
    2.5641    3.4221    0.4773 C   0  0  0  0  0  0  0  0  0  0  0  0
    2.7819    3.8393   -0.8302 C   0  0  0  0  0  0  0  0  0  0  0  0
    1.9640    2.9984   -1.6610 C   0  0  0  0  0  0  0  0  0  0  0  0
    3.1062    3.8779    1.7510 N   0  3  0  0  0  0  0  0  0  0  0  0
    2.7676    3.3312    2.7639 O   0  0  0  0  0  0  0  0  0  0  0  0
    3.8825    4.7957    1.7309 O   0  5  0  0  0  0  0  0  0  0  0  0
   -1.0756   -0.6208   -0.9749 C   0  0  0  0  0  0  0  0  0  0  0  0
   -0.9825   -0.1850   -2.2962 N   0  0  0  0  0  0  0  0  0  0  0  0
    0.0104    0.0812    1.2258 C   0  0  0  0  0  0  0  0  0  0  0  0
   -1.9077   -1.6653   -0.5008 N   0  0  0  0  0  0  0  0  0  0  0  0
   -1.2978   -2.8135    0.0440 C   0  0  0  0  0  0  0  0  0  0  0  0
   -3.3091   -1.4634   -0.7015 C   0  0  0  0  0  0  0  0  0  0  0  0
   -0.0586   -2.8759    0.0840 O   0  0  0  0  0  0  0  0  0  0  0  0
   -2.1523   -3.9125    0.6137 C   0  0  0  0  0  0  0  0  0  0  0  0
   -4.1738   -2.6230   -1.1085 C   0  0  0  0  0  0  0  0  0  0  0  0
   -3.7633   -0.3222   -0.5671 O   0  0  0  0  0  0  0  0  0  0  0  0
    3.4415    4.6428   -1.1577 H   0  0  0  0  0  0  0  0  0  0  0  0
    1.8826    3.0419   -2.7462 H   0  0  0  0  0  0  0  0  0  0  0  0
    1.0439    0.4500    1.4691 H   0  0  0  0  0  0  0  0  0  0  0  0
   -0.7432    0.7031    1.7816 H   0  0  0  0  0  0  0  0  0  0  0  0
   -0.0729   -0.9927    1.5459 H   0  0  0  0  0  0  0  0  0  0  0  0
   -1.5014   -4.5640    1.2503 H   0  0  0  0  0  0  0  0  0  0  0  0
   -2.9820   -3.5077    1.2409 H   0  0  0  0  0  0  0  0  0  0  0  0
   -2.5748   -4.5335   -0.2137 H   0  0  0  0  0  0  0  0  0  0  0  0
   -5.0346   -2.2175   -1.6994 H   0  0  0  0  0  0  0  0  0  0  0  0
   -3.6195   -3.3576   -1.7401 H   0  0  0  0  0  0  0  0  0  0  0  0
   -4.5773   -3.1347   -0.2010 H   0  0  0  0  0  0  0  0  0  0  0  0
  1  3  1  0  0  0  0
  1 12  1  0  0  0  0
  1 14  1  0  0  0  0
  2  3  2  0  0  0  0
  2 13  1  0  0  0  0
  3  4  1  0  0  0  0
  4  5  1  0  0  0  0
  4  8  2  0  0  0  0
  5  6  1  0  0  0  0
  6  7  2  0  0  0  0
  6  9  1  0  0  0  0
  7  8  1  0  0  0  0
  7 22  1  0  0  0  0
  8 23  1  0  0  0  0
  9 10  2  0  0  0  0
  9 11  1  0  0  0  0
 12 13  2  0  0  0  0
 12 15  1  0  0  0  0
 14 24  1  0  0  0  0
 14 25  1  0  0  0  0
 14 26  1  0  0  0  0
 15 16  1  0  0  0  0
 15 17  1  0  0  0  0
 16 18  2  0  0  0  0
 16 19  1  0  0  0  0
 17 20  1  0  0  0  0
 17 21  2  0  0  0  0
 19 27  1  0  0  0  0
 19 28  1  0  0  0  0
 19 29  1  0  0  0  0
 20 30  1  0  0  0  0
 20 31  1  0  0  0  0
 20 32  1  0  0  0  0
M  CHG  2   9   1  11  -1
M  END
