./041735-54-0.hin
 OpenBabel10051109203D

 17 18  0  0  0  0  0  0  0  0999 V2000
   -1.2025   -1.6780   -0.0000 N   0  0  0  0  0  0  0  0  0  0  0  0
   -2.6423    0.0657    0.0000 N   0  0  0  0  0  0  0  0  0  0  0  0
   -1.2781   -0.3179    0.0000 C   0  0  0  0  0  0  0  0  0  0  0  0
   -0.2045    0.6425    0.0000 C   0  0  0  0  0  0  0  0  0  0  0  0
    1.0969    0.1391   -0.0000 O   0  0  0  0  0  0  0  0  0  0  0  0
    1.9259    1.2743    0.0000 C   0  0  0  0  0  0  0  0  0  0  0  0
    1.1763    2.4449    0.0000 C   0  0  0  0  0  0  0  0  0  0  0  0
   -0.2007    2.0332    0.0000 C   0  0  0  0  0  0  0  0  0  0  0  0
    3.3721    1.0542   -0.0000 N   0  3  0  0  0  0  0  0  0  0  0  0
    3.7997   -0.0635   -0.0000 O   0  0  0  0  0  0  0  0  0  0  0  0
    4.0747    2.0301   -0.0000 O   0  5  0  0  0  0  0  0  0  0  0  0
   -3.4278   -1.0023    0.0000 N   0  0  0  0  0  0  0  0  0  0  0  0
   -2.5560   -2.0733   -0.0000 C   0  0  0  0  0  0  0  0  0  0  0  0
   -3.0391   -3.6801   -0.0000 Cl  0  0  0  0  0  0  0  0  0  0  0  0
   -3.0213    0.9848    0.0000 H   0  0  0  0  0  0  0  0  0  0  0  0
    1.5574    3.4659    0.0000 H   0  0  0  0  0  0  0  0  0  0  0  0
   -1.0603    2.6990    0.0000 H   0  0  0  0  0  0  0  0  0  0  0  0
  1  3  2  0  0  0  0
  1 13  1  0  0  0  0
  2  3  1  0  0  0  0
  2 12  1  0  0  0  0
  2 15  1  0  0  0  0
  3  4  1  0  0  0  0
  4  5  1  0  0  0  0
  4  8  2  0  0  0  0
  5  6  1  0  0  0  0
  6  7  2  0  0  0  0
  6  9  1  0  0  0  0
  7  8  1  0  0  0  0
  7 16  1  0  0  0  0
  8 17  1  0  0  0  0
  9 10  2  0  0  0  0
  9 11  1  0  0  0  0
 12 13  2  0  0  0  0
 13 14  1  0  0  0  0
M  CHG  2   9   1  11  -1
M  END
