./041735-55-1.hin
 OpenBabel10051109203D

 24 25  0  0  0  0  0  0  0  0999 V2000
   -0.4010   -1.7518    0.0000 N   0  0  0  0  0  0  0  0  0  0  0  0
   -1.6164   -2.2025    0.0000 N   0  0  0  0  0  0  0  0  0  0  0  0
   -2.5137   -1.1407    0.0000 C   0  0  0  0  0  0  0  0  0  0  0  0
   -1.7701    0.0485   -0.0000 N   0  0  0  0  0  0  0  0  0  0  0  0
   -0.4146   -0.3699    0.0000 C   0  0  0  0  0  0  0  0  0  0  0  0
    0.7584    0.4671    0.0000 C   0  0  0  0  0  0  0  0  0  0  0  0
    1.9672   -0.2443   -0.0000 O   0  0  0  0  0  0  0  0  0  0  0  0
    2.9779    0.7300   -0.0000 C   0  0  0  0  0  0  0  0  0  0  0  0
    2.4373    2.0085    0.0000 C   0  0  0  0  0  0  0  0  0  0  0  0
    1.0112    1.8364    0.0000 C   0  0  0  0  0  0  0  0  0  0  0  0
    4.3637    0.2686   -0.0000 N   0  3  0  0  0  0  0  0  0  0  0  0
    4.5995   -0.9051   -0.0000 O   0  0  0  0  0  0  0  0  0  0  0  0
    5.2230    1.1112   -0.0000 O   0  5  0  0  0  0  0  0  0  0  0  0
   -2.2896    1.3750   -0.0000 C   0  0  0  0  0  0  0  0  0  0  0  0
   -4.1689   -1.4539   -0.0000 S   0  0  0  0  0  0  0  0  0  0  0  0
   -5.0242    0.0586    0.0000 C   0  0  0  0  0  0  0  0  0  0  0  0
    2.9837    2.9510    0.0000 H   0  0  0  0  0  0  0  0  0  0  0  0
    0.3090    2.6646    0.0000 H   0  0  0  0  0  0  0  0  0  0  0  0
   -2.9165    1.5432    0.9182 H   0  0  0  0  0  0  0  0  0  0  0  0
   -1.4570    2.1222    0.0000 H   0  0  0  0  0  0  0  0  0  0  0  0
   -2.9165    1.5432   -0.9182 H   0  0  0  0  0  0  0  0  0  0  0  0
   -6.1015   -0.2500   -0.0000 H   0  0  0  0  0  0  0  0  0  0  0  0
   -4.8450    0.6805    0.9051 H   0  0  0  0  0  0  0  0  0  0  0  0
   -4.8450    0.6805   -0.9051 H   0  0  0  0  0  0  0  0  0  0  0  0
  1  2  1  0  0  0  0
  1  5  2  0  0  0  0
  2  3  2  0  0  0  0
  3  4  1  0  0  0  0
  3 15  1  0  0  0  0
  4  5  1  0  0  0  0
  4 14  1  0  0  0  0
  5  6  1  0  0  0  0
  6  7  1  0  0  0  0
  6 10  2  0  0  0  0
  7  8  1  0  0  0  0
  8  9  2  0  0  0  0
  8 11  1  0  0  0  0
  9 10  1  0  0  0  0
  9 17  1  0  0  0  0
 10 18  1  0  0  0  0
 11 12  2  0  0  0  0
 11 13  1  0  0  0  0
 14 19  1  0  0  0  0
 14 20  1  0  0  0  0
 14 21  1  0  0  0  0
 15 16  1  0  0  0  0
 16 22  1  0  0  0  0
 16 23  1  0  0  0  0
 16 24  1  0  0  0  0
M  CHG  2  11   1  13  -1
M  END
