./041735-56-2.hin
 OpenBabel10051109203D

 26 27  0  0  0  0  0  0  0  0999 V2000
   -0.3242   -1.6152    0.1064 N   0  0  0  0  0  0  0  0  0  0  0  0
   -1.5604   -1.9840    0.0331 N   0  0  0  0  0  0  0  0  0  0  0  0
   -2.3922   -0.8803   -0.0591 C   0  0  0  0  0  0  0  0  0  0  0  0
   -1.5808    0.2597   -0.0412 N   0  0  0  0  0  0  0  0  0  0  0  0
   -0.2716   -0.2262    0.0702 C   0  0  0  0  0  0  0  0  0  0  0  0
    0.9084    0.5960    0.1410 C   0  0  0  0  0  0  0  0  0  0  0  0
    2.0945    0.0104   -0.3096 O   0  0  0  0  0  0  0  0  0  0  0  0
    3.0811    0.9919   -0.1182 C   0  0  0  0  0  0  0  0  0  0  0  0
    2.5408    2.1486    0.4307 C   0  0  0  0  0  0  0  0  0  0  0  0
    1.1362    1.8896    0.5959 C   0  0  0  0  0  0  0  0  0  0  0  0
    4.4515    0.6561   -0.5064 N   0  3  0  0  0  0  0  0  0  0  0  0
    4.6838   -0.4167   -0.9833 O   0  0  0  0  0  0  0  0  0  0  0  0
    5.2932    1.4955   -0.3265 O   0  5  0  0  0  0  0  0  0  0  0  0
   -1.9867    1.6305   -0.1048 C   0  0  0  0  0  0  0  0  0  0  0  0
   -4.1006   -0.9894   -0.1267 S   0  0  0  0  0  0  0  0  0  0  0  0
   -4.5852   -1.4045    1.1065 O   0  0  0  0  0  0  0  0  0  0  0  0
   -4.5687    0.2345   -0.6178 O   0  0  0  0  0  0  0  0  0  0  0  0
   -4.2724   -2.1885   -1.2808 C   0  0  0  0  0  0  0  0  0  0  0  0
    3.0749    3.0637    0.6861 H   0  0  0  0  0  0  0  0  0  0  0  0
    0.4087    2.5797    1.0182 H   0  0  0  0  0  0  0  0  0  0  0  0
   -2.0972    2.0396    0.9371 H   0  0  0  0  0  0  0  0  0  0  0  0
   -1.2048    2.2225   -0.6538 H   0  0  0  0  0  0  0  0  0  0  0  0
   -2.9715    1.7212   -0.6443 H   0  0  0  0  0  0  0  0  0  0  0  0
   -5.3469   -2.3246   -1.5717 H   0  0  0  0  0  0  0  0  0  0  0  0
   -3.7207   -1.9868   -2.2333 H   0  0  0  0  0  0  0  0  0  0  0  0
   -3.9197   -3.1948   -0.9324 H   0  0  0  0  0  0  0  0  0  0  0  0
  1  2  1  0  0  0  0
  1  5  2  0  0  0  0
  2  3  2  0  0  0  0
  3  4  1  0  0  0  0
  3 15  1  0  0  0  0
  4  5  1  0  0  0  0
  4 14  1  0  0  0  0
  5  6  1  0  0  0  0
  6  7  1  0  0  0  0
  6 10  2  0  0  0  0
  7  8  1  0  0  0  0
  8  9  2  0  0  0  0
  8 11  1  0  0  0  0
  9 10  1  0  0  0  0
  9 19  1  0  0  0  0
 10 20  1  0  0  0  0
 11 12  2  0  0  0  0
 11 13  1  0  0  0  0
 14 21  1  0  0  0  0
 14 22  1  0  0  0  0
 14 23  1  0  0  0  0
 15 16  2  0  0  0  0
 15 17  2  0  0  0  0
 15 18  1  0  0  0  0
 18 24  1  0  0  0  0
 18 25  1  0  0  0  0
 18 26  1  0  0  0  0
M  CHG  2  11   1  13  -1
M  END
