./041814-78-2.hin
 OpenBabel10051109203D

 20 22  0  0  0  0  0  0  0  0999 V2000
   -4.7869   -1.3736   -0.0953 C   0  0  0  0  0  0  0  0  0  0  0  0
   -4.8373    0.0218   -0.0989 C   0  0  0  0  0  0  0  0  0  0  0  0
   -3.6737    0.7954   -0.0479 C   0  0  0  0  0  0  0  0  0  0  0  0
   -2.4453    0.1158    0.0071 C   0  0  0  0  0  0  0  0  0  0  0  0
   -2.3875   -1.3164    0.0113 C   0  0  0  0  0  0  0  0  0  0  0  0
   -3.5693   -2.0478   -0.0404 C   0  0  0  0  0  0  0  0  0  0  0  0
   -3.7326    2.2731   -0.0516 C   0  0  0  0  0  0  0  0  0  0  0  0
   -0.7816   -1.9182    0.0831 S   0  0  0  0  0  0  0  0  0  0  0  0
   -0.1366   -0.3518    0.1097 C   0  0  0  0  0  0  0  0  0  0  0  0
   -1.1586    0.6589    0.0634 N   0  0  0  0  0  0  0  0  0  0  0  0
    1.0730    0.2731    0.1621 N   0  0  0  0  0  0  0  0  0  0  0  0
    0.8693    1.5783    0.1513 N   0  0  0  0  0  0  0  0  0  0  0  0
   -0.4624    1.8674    0.0923 C   0  0  0  0  0  0  0  0  0  0  0  0
   -5.7242   -1.9496   -0.1364 H   0  0  0  0  0  0  0  0  0  0  0  0
   -5.8143    0.5285   -0.1428 H   0  0  0  0  0  0  0  0  0  0  0  0
   -3.5407   -3.1480   -0.0379 H   0  0  0  0  0  0  0  0  0  0  0  0
   -3.2608    2.6847    0.8766 H   0  0  0  0  0  0  0  0  0  0  0  0
   -3.1821    2.6833   -0.9360 H   0  0  0  0  0  0  0  0  0  0  0  0
   -4.7897    2.6339   -0.0977 H   0  0  0  0  0  0  0  0  0  0  0  0
   -0.9353    2.8524    0.0700 H   0  0  0  0  0  0  0  0  0  0  0  0
  1  2  2  0  0  0  0
  1  6  1  0  0  0  0
  1 14  1  0  0  0  0
  2  3  1  0  0  0  0
  2 15  1  0  0  0  0
  3  4  2  0  0  0  0
  3  7  1  0  0  0  0
  4  5  1  0  0  0  0
  4 10  1  0  0  0  0
  5  6  2  0  0  0  0
  5  8  1  0  0  0  0
  6 16  1  0  0  0  0
  7 17  1  0  0  0  0
  7 18  1  0  0  0  0
  7 19  1  0  0  0  0
  8  9  1  0  0  0  0
  9 10  1  0  0  0  0
  9 11  2  0  0  0  0
 10 13  1  0  0  0  0
 11 12  1  0  0  0  0
 12 13  2  0  0  0  0
 13 20  1  0  0  0  0
M  END
