./054028-86-3.hin
 OpenBabel10051109203D

 34 37  0  0  0  0  0  0  0  0999 V2000
   -4.0297   -2.7632    1.9292 O   0  0  0  0  0  0  0  0  0  0  0  0
   -1.7421   -0.8150   -0.2291 N   0  0  0  0  0  0  0  0  0  0  0  0
   -2.0596    0.4990   -0.6354 C   0  0  0  0  0  0  0  0  0  0  0  0
   -1.2601    1.2185   -1.6645 C   0  0  0  0  0  0  0  0  0  0  0  0
    0.1680    1.4347   -1.1462 C   0  0  0  0  0  0  0  0  0  0  0  0
    0.9078    0.2685   -0.7190 N   0  0  0  0  0  0  0  0  0  0  0  0
    0.5549   -1.0354   -1.0997 C   0  0  0  0  0  0  0  0  0  0  0  0
   -0.7213   -1.6054   -0.7923 C   0  0  0  0  0  0  0  0  0  0  0  0
   -0.9749   -2.9600   -1.0846 C   0  0  0  0  0  0  0  0  0  0  0  0
    0.0148   -3.7548   -1.6562 C   0  0  0  0  0  0  0  0  0  0  0  0
    1.2687   -3.2162   -1.9587 C   0  0  0  0  0  0  0  0  0  0  0  0
    1.5259   -1.8813   -1.6902 C   0  0  0  0  0  0  0  0  0  0  0  0
   -0.3086   -5.3879   -1.9906 Cl  0  0  0  0  0  0  0  0  0  0  0  0
   -1.8758    2.5563   -2.0189 C   0  0  0  0  0  0  0  0  0  0  0  0
   -3.1443    0.9209    0.0850 N   0  0  0  0  0  0  0  0  0  0  0  0
   -3.5216   -0.0286    0.9089 N   0  0  0  0  0  0  0  0  0  0  0  0
   -2.6978   -1.1205    0.7673 C   0  0  0  0  0  0  0  0  0  0  0  0
   -2.7537   -2.3478    1.5164 C   0  0  0  0  0  0  0  0  0  0  0  0
   -1.2237    0.5778   -2.5941 H   0  0  0  0  0  0  0  0  0  0  0  0
    0.1216    2.1190   -0.2480 H   0  0  0  0  0  0  0  0  0  0  0  0
    0.7359    1.9774   -1.9603 H   0  0  0  0  0  0  0  0  0  0  0  0
    1.8942    0.4253   -0.8108 H   0  0  0  0  0  0  0  0  0  0  0  0
   -1.9605   -3.3963   -0.8435 H   0  0  0  0  0  0  0  0  0  0  0  0
    2.0494   -3.8459   -2.4140 H   0  0  0  0  0  0  0  0  0  0  0  0
    2.5207   -1.4757   -1.9372 H   0  0  0  0  0  0  0  0  0  0  0  0
   -1.9121    3.2277   -1.1273 H   0  0  0  0  0  0  0  0  0  0  0  0
   -1.2708    3.0498   -2.8176 H   0  0  0  0  0  0  0  0  0  0  0  0
   -2.9180    2.4123   -2.3934 H   0  0  0  0  0  0  0  0  0  0  0  0
   -1.7931   -3.2274    1.9882 C   0  0  0  0  0  0  0  0  0  0  0  0
   -2.4959   -4.2461    2.7308 C   0  0  0  0  0  0  0  0  0  0  0  0
   -3.8386   -3.9253    2.6696 C   0  0  0  0  0  0  0  0  0  0  0  0
   -0.7180   -3.1715    1.8388 H   0  0  0  0  0  0  0  0  0  0  0  0
   -2.0372   -5.0914    3.2357 H   0  0  0  0  0  0  0  0  0  0  0  0
   -4.7551   -4.3598    3.0598 H   0  0  0  0  0  0  0  0  0  0  0  0
  1 18  1  0  0  0  0
  1 31  1  0  0  0  0
  2  3  1  0  0  0  0
  2  8  1  0  0  0  0
  2 17  1  0  0  0  0
  3  4  1  0  0  0  0
  3 15  2  0  0  0  0
  4  5  1  0  0  0  0
  4 14  1  0  0  0  0
  4 19  1  0  0  0  0
  5  6  1  0  0  0  0
  5 20  1  0  0  0  0
  5 21  1  0  0  0  0
  6  7  1  0  0  0  0
  6 22  1  0  0  0  0
  7  8  2  0  0  0  0
  7 12  1  0  0  0  0
  8  9  1  0  0  0  0
  9 10  2  0  0  0  0
  9 23  1  0  0  0  0
 10 11  1  0  0  0  0
 10 13  1  0  0  0  0
 11 12  2  0  0  0  0
 11 24  1  0  0  0  0
 12 25  1  0  0  0  0
 14 26  1  0  0  0  0
 14 27  1  0  0  0  0
 14 28  1  0  0  0  0
 15 16  1  0  0  0  0
 16 17  2  0  0  0  0
 17 18  1  0  0  0  0
 18 29  2  0  0  0  0
 29 30  1  0  0  0  0
 29 32  1  0  0  0  0
 30 31  2  0  0  0  0
 30 33  1  0  0  0  0
 31 34  1  0  0  0  0
M  END
