./054028-91-0.hin
 OpenBabel10051109203D

 37 40  0  0  0  0  0  0  0  0999 V2000
    0.0746    0.5553   -0.0712 N   0  0  0  0  0  0  0  0  0  0  0  0
   -0.0049    1.9617   -0.1470 C   0  0  0  0  0  0  0  0  0  0  0  0
    1.1684    2.8405   -0.4025 C   0  0  0  0  0  0  0  0  0  0  0  0
    1.8851    2.3292   -1.6592 C   0  0  0  0  0  0  0  0  0  0  0  0
    2.5701    1.0660   -1.6084 N   0  0  0  0  0  0  0  0  0  0  0  0
    2.4531    0.0972   -0.6128 C   0  0  0  0  0  0  0  0  0  0  0  0
    1.2518   -0.2015    0.1027 C   0  0  0  0  0  0  0  0  0  0  0  0
    1.2447   -1.2639    1.0341 C   0  0  0  0  0  0  0  0  0  0  0  0
    2.3697   -2.0440    1.2490 C   0  0  0  0  0  0  0  0  0  0  0  0
    3.5435   -1.7714    0.5460 C   0  0  0  0  0  0  0  0  0  0  0  0
    3.5884   -0.7223   -0.3549 C   0  0  0  0  0  0  0  0  0  0  0  0
    2.0738    2.9646    0.8008 C   0  0  0  0  0  0  0  0  0  0  0  0
   -1.3233    2.3259   -0.0748 N   0  0  0  0  0  0  0  0  0  0  0  0
   -2.0674    1.2523    0.0449 N   0  0  0  0  0  0  0  0  0  0  0  0
   -1.2710    0.1318    0.0515 C   0  0  0  0  0  0  0  0  0  0  0  0
   -1.7464   -1.2464    0.1036 C   0  0  0  0  0  0  0  0  0  0  0  0
   -1.1898   -2.2314   -0.7234 C   0  0  0  0  0  0  0  0  0  0  0  0
   -1.6923   -3.5307   -0.6904 C   0  0  0  0  0  0  0  0  0  0  0  0
   -2.7501   -3.8531    0.1602 C   0  0  0  0  0  0  0  0  0  0  0  0
   -3.3092   -2.8722    0.9787 C   0  0  0  0  0  0  0  0  0  0  0  0
   -2.8141   -1.5692    0.9530 C   0  0  0  0  0  0  0  0  0  0  0  0
    0.7780    3.8717   -0.6560 H   0  0  0  0  0  0  0  0  0  0  0  0
    2.6304    3.1216   -1.9658 H   0  0  0  0  0  0  0  0  0  0  0  0
    1.1135    2.2508   -2.4830 H   0  0  0  0  0  0  0  0  0  0  0  0
    3.5034    1.1330   -1.9641 H   0  0  0  0  0  0  0  0  0  0  0  0
    0.3199   -1.4851    1.5950 H   0  0  0  0  0  0  0  0  0  0  0  0
    2.3345   -2.8702    1.9736 H   0  0  0  0  0  0  0  0  0  0  0  0
    4.4408   -2.3870    0.7126 H   0  0  0  0  0  0  0  0  0  0  0  0
    4.5308   -0.5243   -0.8909 H   0  0  0  0  0  0  0  0  0  0  0  0
    2.4536    1.9682    1.1325 H   0  0  0  0  0  0  0  0  0  0  0  0
    2.9474    3.6143    0.5508 H   0  0  0  0  0  0  0  0  0  0  0  0
    1.5165    3.4275    1.6513 H   0  0  0  0  0  0  0  0  0  0  0  0
   -0.3589   -1.9787   -1.3996 H   0  0  0  0  0  0  0  0  0  0  0  0
   -1.2545   -4.3013   -1.3417 H   0  0  0  0  0  0  0  0  0  0  0  0
   -3.1455   -4.8793    0.1816 H   0  0  0  0  0  0  0  0  0  0  0  0
   -4.1480   -3.1230    1.6449 H   0  0  0  0  0  0  0  0  0  0  0  0
   -3.2655   -0.7924    1.5895 H   0  0  0  0  0  0  0  0  0  0  0  0
  1  2  1  0  0  0  0
  1  7  1  0  0  0  0
  1 15  1  0  0  0  0
  2  3  1  0  0  0  0
  2 13  2  0  0  0  0
  3  4  1  0  0  0  0
  3 12  1  0  0  0  0
  3 22  1  0  0  0  0
  4  5  1  0  0  0  0
  4 23  1  0  0  0  0
  4 24  1  0  0  0  0
  5  6  1  0  0  0  0
  5 25  1  0  0  0  0
  6  7  2  0  0  0  0
  6 11  1  0  0  0  0
  7  8  1  0  0  0  0
  8  9  2  0  0  0  0
  8 26  1  0  0  0  0
  9 10  1  0  0  0  0
  9 27  1  0  0  0  0
 10 11  2  0  0  0  0
 10 28  1  0  0  0  0
 11 29  1  0  0  0  0
 12 30  1  0  0  0  0
 12 31  1  0  0  0  0
 12 32  1  0  0  0  0
 13 14  1  0  0  0  0
 14 15  2  0  0  0  0
 15 16  1  0  0  0  0
 16 17  2  0  0  0  0
 16 21  1  0  0  0  0
 17 18  1  0  0  0  0
 17 33  1  0  0  0  0
 18 19  2  0  0  0  0
 18 34  1  0  0  0  0
 19 20  1  0  0  0  0
 19 35  1  0  0  0  0
 20 21  2  0  0  0  0
 20 36  1  0  0  0  0
 21 37  1  0  0  0  0
M  END
