./054028-92-1.hin
 OpenBabel10051109203D

 41 44  0  0  0  0  0  0  0  0999 V2000
   -0.0801    0.6717   -0.0165 N   0  0  0  0  0  0  0  0  0  0  0  0
   -0.2282    2.0309   -0.3665 C   0  0  0  0  0  0  0  0  0  0  0  0
    0.9167    2.9505   -0.6069 C   0  0  0  0  0  0  0  0  0  0  0  0
    1.8786    2.2490   -1.5778 C   0  0  0  0  0  0  0  0  0  0  0  0
    2.6840    1.1691   -1.0831 N   0  0  0  0  0  0  0  0  0  0  0  0
    2.3878    0.3382   -0.0041 C   0  0  0  0  0  0  0  0  0  0  0  0
    1.0795    0.0563    0.4997 C   0  0  0  0  0  0  0  0  0  0  0  0
    0.9344   -0.8578    1.5682 C   0  0  0  0  0  0  0  0  0  0  0  0
    3.3045   -1.2495    1.6308 C   0  0  0  0  0  0  0  0  0  0  0  0
    3.4829   -0.3431    0.6015 C   0  0  0  0  0  0  0  0  0  0  0  0
    1.5737    3.4069    0.6745 C   0  0  0  0  0  0  0  0  0  0  0  0
   -1.5574    2.2830   -0.5803 N   0  0  0  0  0  0  0  0  0  0  0  0
   -2.2480    1.1840   -0.3867 N   0  0  0  0  0  0  0  0  0  0  0  0
   -1.4004    0.1602   -0.0428 C   0  0  0  0  0  0  0  0  0  0  0  0
   -1.7982   -1.2234    0.1931 C   0  0  0  0  0  0  0  0  0  0  0  0
   -1.3933   -2.2653   -0.6717 C   0  0  0  0  0  0  0  0  0  0  0  0
   -1.8272   -3.5792   -0.4441 C   0  0  0  0  0  0  0  0  0  0  0  0
   -2.6707   -3.8490    0.6310 C   0  0  0  0  0  0  0  0  0  0  0  0
   -3.0874   -2.8244    1.4792 C   0  0  0  0  0  0  0  0  0  0  0  0
   -2.6555   -1.5177    1.2580 C   0  0  0  0  0  0  0  0  0  0  0  0
   -0.5742   -1.8943   -1.7161 O   0  0  0  0  0  0  0  0  0  0  0  0
   -0.1647   -2.9328   -2.5996 C   0  0  0  0  0  0  0  0  0  0  0  0
    2.0251   -1.5077    2.1227 C   0  0  0  0  0  0  0  0  0  0  0  0
    0.5212    3.8626   -1.1456 H   0  0  0  0  0  0  0  0  0  0  0  0
    2.5750    3.0337   -1.9958 H   0  0  0  0  0  0  0  0  0  0  0  0
    1.2643    1.8458   -2.4377 H   0  0  0  0  0  0  0  0  0  0  0  0
    3.6637    1.3556   -1.1618 H   0  0  0  0  0  0  0  0  0  0  0  0
   -0.0731   -1.0657    1.9696 H   0  0  0  0  0  0  0  0  0  0  0  0
    4.1764   -1.7613    2.0657 H   0  0  0  0  0  0  0  0  0  0  0  0
    4.5053   -0.1528    0.2366 H   0  0  0  0  0  0  0  0  0  0  0  0
    1.9176    2.5401    1.2891 H   0  0  0  0  0  0  0  0  0  0  0  0
    2.4557    4.0507    0.4392 H   0  0  0  0  0  0  0  0  0  0  0  0
    0.8497    4.0013    1.2834 H   0  0  0  0  0  0  0  0  0  0  0  0
   -1.5144   -4.3960   -1.1089 H   0  0  0  0  0  0  0  0  0  0  0  0
   -3.0128   -4.8804    0.8055 H   0  0  0  0  0  0  0  0  0  0  0  0
   -3.7619   -3.0427    2.3194 H   0  0  0  0  0  0  0  0  0  0  0  0
   -2.9951   -0.7026    1.9165 H   0  0  0  0  0  0  0  0  0  0  0  0
    0.4737   -2.3958   -3.3467 H   0  0  0  0  0  0  0  0  0  0  0  0
    0.4313   -3.7036   -2.0537 H   0  0  0  0  0  0  0  0  0  0  0  0
   -1.0491   -3.3983   -3.0985 H   0  0  0  0  0  0  0  0  0  0  0  0
    1.8793   -2.2185    2.9484 H   0  0  0  0  0  0  0  0  0  0  0  0
  1  2  1  0  0  0  0
  1  7  1  0  0  0  0
  1 14  1  0  0  0  0
  2  3  1  0  0  0  0
  2 12  2  0  0  0  0
  3  4  1  0  0  0  0
  3 11  1  0  0  0  0
  3 24  1  0  0  0  0
  4  5  1  0  0  0  0
  4 25  1  0  0  0  0
  4 26  1  0  0  0  0
  5  6  1  0  0  0  0
  5 27  1  0  0  0  0
  6  7  2  0  0  0  0
  6 10  1  0  0  0  0
  7  8  1  0  0  0  0
  8 23  2  0  0  0  0
  8 28  1  0  0  0  0
  9 10  2  0  0  0  0
  9 23  1  0  0  0  0
  9 29  1  0  0  0  0
 10 30  1  0  0  0  0
 11 31  1  0  0  0  0
 11 32  1  0  0  0  0
 11 33  1  0  0  0  0
 12 13  1  0  0  0  0
 13 14  2  0  0  0  0
 14 15  1  0  0  0  0
 15 16  2  0  0  0  0
 15 20  1  0  0  0  0
 16 17  1  0  0  0  0
 16 21  1  0  0  0  0
 17 18  2  0  0  0  0
 17 34  1  0  0  0  0
 18 19  1  0  0  0  0
 18 35  1  0  0  0  0
 19 20  2  0  0  0  0
 19 36  1  0  0  0  0
 20 37  1  0  0  0  0
 21 22  1  0  0  0  0
 22 38  1  0  0  0  0
 22 39  1  0  0  0  0
 22 40  1  0  0  0  0
 23 41  1  0  0  0  0
M  END
