./054028-94-3.hin
 OpenBabel10051109203D

 34 37  0  0  0  0  0  0  0  0999 V2000
   -0.0430    0.7237   -0.0821 N   0  0  0  0  0  0  0  0  0  0  0  0
   -0.1153    2.1228   -0.2552 C   0  0  0  0  0  0  0  0  0  0  0  0
    1.0926    2.9694   -0.3898 C   0  0  0  0  0  0  0  0  0  0  0  0
    1.8944    2.5981   -1.6332 C   0  0  0  0  0  0  0  0  0  0  0  0
    2.2265    1.2028   -1.8214 N   0  0  0  0  0  0  0  0  0  0  0  0
    2.2961    0.3034   -0.7412 C   0  0  0  0  0  0  0  0  0  0  0  0
    1.1572    0.0012    0.0704 C   0  0  0  0  0  0  0  0  0  0  0  0
    1.2498   -1.0024    1.0557 C   0  0  0  0  0  0  0  0  0  0  0  0
    3.5427   -1.4298    0.4527 C   0  0  0  0  0  0  0  0  0  0  0  0
    3.4810   -0.4368   -0.5146 C   0  0  0  0  0  0  0  0  0  0  0  0
   -1.4346    2.4846   -0.2828 N   0  0  0  0  0  0  0  0  0  0  0  0
   -2.1825    1.4147   -0.1410 N   0  0  0  0  0  0  0  0  0  0  0  0
   -1.3884    0.2991   -0.0164 C   0  0  0  0  0  0  0  0  0  0  0  0
   -1.8569   -1.0750    0.1225 C   0  0  0  0  0  0  0  0  0  0  0  0
   -1.2363   -2.1216   -0.5722 C   0  0  0  0  0  0  0  0  0  0  0  0
   -1.7273   -3.4204   -0.4548 C   0  0  0  0  0  0  0  0  0  0  0  0
   -3.4598   -2.6397    1.0360 C   0  0  0  0  0  0  0  0  0  0  0  0
   -2.9767   -1.3367    0.9248 C   0  0  0  0  0  0  0  0  0  0  0  0
   -2.8371   -3.6816    0.3493 C   0  0  0  0  0  0  0  0  0  0  0  0
    2.4281   -1.7140    1.2397 C   0  0  0  0  0  0  0  0  0  0  0  0
    1.7278    2.8591    0.5307 H   0  0  0  0  0  0  0  0  0  0  0  0
    0.7899    4.0479   -0.4746 H   0  0  0  0  0  0  0  0  0  0  0  0
    2.8336    3.2292   -1.6213 H   0  0  0  0  0  0  0  0  0  0  0  0
    1.2977    2.8938   -2.5466 H   0  0  0  0  0  0  0  0  0  0  0  0
    3.0254    1.1139   -2.4216 H   0  0  0  0  0  0  0  0  0  0  0  0
    0.3693   -1.2360    1.6782 H   0  0  0  0  0  0  0  0  0  0  0  0
    4.4785   -1.9903    0.6002 H   0  0  0  0  0  0  0  0  0  0  0  0
    4.3747   -0.2302   -1.1250 H   0  0  0  0  0  0  0  0  0  0  0  0
   -0.3651   -1.9176   -1.2135 H   0  0  0  0  0  0  0  0  0  0  0  0
   -1.2395   -4.2396   -1.0033 H   0  0  0  0  0  0  0  0  0  0  0  0
   -4.3393   -2.8426    1.6649 H   0  0  0  0  0  0  0  0  0  0  0  0
   -3.4775   -0.5131    1.4570 H   0  0  0  0  0  0  0  0  0  0  0  0
   -3.2231   -4.7078    0.4377 H   0  0  0  0  0  0  0  0  0  0  0  0
    2.4773   -2.4987    2.0090 H   0  0  0  0  0  0  0  0  0  0  0  0
  1  2  1  0  0  0  0
  1  7  1  0  0  0  0
  1 13  1  0  0  0  0
  2  3  1  0  0  0  0
  2 11  2  0  0  0  0
  3  4  1  0  0  0  0
  3 21  1  0  0  0  0
  3 22  1  0  0  0  0
  4  5  1  0  0  0  0
  4 23  1  0  0  0  0
  4 24  1  0  0  0  0
  5  6  1  0  0  0  0
  5 25  1  0  0  0  0
  6  7  2  0  0  0  0
  6 10  1  0  0  0  0
  7  8  1  0  0  0  0
  8 20  2  0  0  0  0
  8 26  1  0  0  0  0
  9 10  2  0  0  0  0
  9 20  1  0  0  0  0
  9 27  1  0  0  0  0
 10 28  1  0  0  0  0
 11 12  1  0  0  0  0
 12 13  2  0  0  0  0
 13 14  1  0  0  0  0
 14 15  2  0  0  0  0
 14 18  1  0  0  0  0
 15 16  1  0  0  0  0
 15 29  1  0  0  0  0
 16 19  2  0  0  0  0
 16 30  1  0  0  0  0
 17 18  2  0  0  0  0
 17 19  1  0  0  0  0
 17 31  1  0  0  0  0
 18 32  1  0  0  0  0
 19 33  1  0  0  0  0
 20 34  1  0  0  0  0
M  END
