./054028-95-4.hin
 OpenBabel10051109203D

 41 44  0  0  0  0  0  0  0  0999 V2000
   -1.6941    0.7393    3.0784 C   0  0  0  0  0  0  0  0  0  0  0  0
   -2.6255    0.2583    1.9835 C   0  0  0  0  0  0  0  0  0  0  0  0
   -2.8916   -1.2487    2.0808 C   0  0  0  0  0  0  0  0  0  0  0  0
   -1.9661   -2.1525    1.4331 N   0  0  0  0  0  0  0  0  0  0  0  0
   -0.5813   -1.8775    1.4210 C   0  0  0  0  0  0  0  0  0  0  0  0
   -0.0565   -0.7741    0.6729 C   0  0  0  0  0  0  0  0  0  0  0  0
    1.3310   -0.5870    0.5761 C   0  0  0  0  0  0  0  0  0  0  0  0
    2.2045   -1.4925    1.1970 C   0  0  0  0  0  0  0  0  0  0  0  0
    1.7097   -2.5769    1.9259 C   0  0  0  0  0  0  0  0  0  0  0  0
    0.3356   -2.7533    2.0364 C   0  0  0  0  0  0  0  0  0  0  0  0
    3.5457   -1.2072    1.0224 O   0  0  0  0  0  0  0  0  0  0  0  0
    4.4611   -2.1012    1.6449 C   0  0  0  0  0  0  0  0  0  0  0  0
   -0.9323    0.1452    0.0620 N   0  0  0  0  0  0  0  0  0  0  0  0
   -2.1183    0.6482    0.6389 C   0  0  0  0  0  0  0  0  0  0  0  0
   -2.6754    1.5374   -0.2400 N   0  0  0  0  0  0  0  0  0  0  0  0
   -1.9291    1.6162   -1.3182 N   0  0  0  0  0  0  0  0  0  0  0  0
   -0.8462    0.7807   -1.1983 C   0  0  0  0  0  0  0  0  0  0  0  0
    0.1881    0.5662   -2.2043 C   0  0  0  0  0  0  0  0  0  0  0  0
    0.7359    1.6728   -2.8677 C   0  0  0  0  0  0  0  0  0  0  0  0
    1.6953    1.4791   -3.8606 C   0  0  0  0  0  0  0  0  0  0  0  0
    2.1064    0.1900   -4.1987 C   0  0  0  0  0  0  0  0  0  0  0  0
    1.5549   -0.9117   -3.5441 C   0  0  0  0  0  0  0  0  0  0  0  0
    0.5962   -0.7288   -2.5493 C   0  0  0  0  0  0  0  0  0  0  0  0
   -1.5240    1.8390    2.9835 H   0  0  0  0  0  0  0  0  0  0  0  0
   -0.7070    0.2201    3.0228 H   0  0  0  0  0  0  0  0  0  0  0  0
   -2.1473    0.5348    4.0787 H   0  0  0  0  0  0  0  0  0  0  0  0
   -3.6260    0.7659    2.1307 H   0  0  0  0  0  0  0  0  0  0  0  0
   -3.8900   -1.4558    1.5919 H   0  0  0  0  0  0  0  0  0  0  0  0
   -2.9941   -1.4933    3.1813 H   0  0  0  0  0  0  0  0  0  0  0  0
   -2.1399   -3.0923    1.7409 H   0  0  0  0  0  0  0  0  0  0  0  0
    1.7519    0.2558    0.0034 H   0  0  0  0  0  0  0  0  0  0  0  0
    2.3882   -3.2895    2.4159 H   0  0  0  0  0  0  0  0  0  0  0  0
   -0.0385   -3.6138    2.6148 H   0  0  0  0  0  0  0  0  0  0  0  0
    5.4613   -1.6776    1.3725 H   0  0  0  0  0  0  0  0  0  0  0  0
    4.3216   -2.1010    2.7532 H   0  0  0  0  0  0  0  0  0  0  0  0
    4.3455   -3.1338    1.2350 H   0  0  0  0  0  0  0  0  0  0  0  0
    0.4013    2.6894   -2.6100 H   0  0  0  0  0  0  0  0  0  0  0  0
    2.1248    2.3483   -4.3802 H   0  0  0  0  0  0  0  0  0  0  0  0
    2.8624    0.0414   -4.9836 H   0  0  0  0  0  0  0  0  0  0  0  0
    1.8732   -1.9292   -3.8144 H   0  0  0  0  0  0  0  0  0  0  0  0
    0.1571   -1.5992   -2.0386 H   0  0  0  0  0  0  0  0  0  0  0  0
  1  2  1  0  0  0  0
  1 24  1  0  0  0  0
  1 25  1  0  0  0  0
  1 26  1  0  0  0  0
  2  3  1  0  0  0  0
  2 14  1  0  0  0  0
  2 27  1  0  0  0  0
  3  4  1  0  0  0  0
  3 28  1  0  0  0  0
  3 29  1  0  0  0  0
  4  5  1  0  0  0  0
  4 30  1  0  0  0  0
  5  6  2  0  0  0  0
  5 10  1  0  0  0  0
  6  7  1  0  0  0  0
  6 13  1  0  0  0  0
  7  8  2  0  0  0  0
  7 31  1  0  0  0  0
  8  9  1  0  0  0  0
  8 11  1  0  0  0  0
  9 10  2  0  0  0  0
  9 32  1  0  0  0  0
 10 33  1  0  0  0  0
 11 12  1  0  0  0  0
 12 34  1  0  0  0  0
 12 35  1  0  0  0  0
 12 36  1  0  0  0  0
 13 14  1  0  0  0  0
 13 17  1  0  0  0  0
 14 15  2  0  0  0  0
 15 16  1  0  0  0  0
 16 17  2  0  0  0  0
 17 18  1  0  0  0  0
 18 19  2  0  0  0  0
 18 23  1  0  0  0  0
 19 20  1  0  0  0  0
 19 37  1  0  0  0  0
 20 21  2  0  0  0  0
 20 38  1  0  0  0  0
 21 22  1  0  0  0  0
 21 39  1  0  0  0  0
 22 23  2  0  0  0  0
 22 40  1  0  0  0  0
 23 41  1  0  0  0  0
M  END
