./054123-06-7.hin
 OpenBabel10051109203D

 32 35  0  0  0  0  0  0  0  0999 V2000
   -0.3528   -4.2489    0.7570 C   0  0  0  0  0  0  0  0  0  0  0  0
    0.8681   -3.4610    0.4817 C   0  0  0  0  0  0  0  0  0  0  0  0
    2.0881   -3.9365    0.0936 N   0  0  0  0  0  0  0  0  0  0  0  0
    2.9413   -2.9396   -0.0384 N   0  0  0  0  0  0  0  0  0  0  0  0
    2.3214   -1.7631    0.2616 C   0  0  0  0  0  0  0  0  0  0  0  0
    0.9770   -2.0498    0.6042 N   0  0  0  0  0  0  0  0  0  0  0  0
   -0.0025   -1.1307    0.9340 C   0  0  0  0  0  0  0  0  0  0  0  0
   -0.0307    0.2137    0.5450 C   0  0  0  0  0  0  0  0  0  0  0  0
   -1.1694    0.8892    1.0848 C   0  0  0  0  0  0  0  0  0  0  0  0
   -1.9587    0.0511    1.8437 C   0  0  0  0  0  0  0  0  0  0  0  0
   -1.3433   -1.5109    1.9089 S   0  0  0  0  0  0  0  0  0  0  0  0
   -3.3737    0.4905    2.6134 Cl  0  0  0  0  0  0  0  0  0  0  0  0
    0.9512    0.8844   -0.3152 C   0  0  0  0  0  0  0  0  0  0  0  0
    2.2073    0.6253   -0.4527 N   0  0  0  0  0  0  0  0  0  0  0  0
    2.9166   -0.3887    0.2668 C   0  0  0  0  0  0  0  0  0  0  0  0
    0.3758    1.9969   -1.1235 C   0  0  0  0  0  0  0  0  0  0  0  0
   -0.2791    1.6970   -2.3229 C   0  0  0  0  0  0  0  0  0  0  0  0
   -0.8190    2.7189   -3.1015 C   0  0  0  0  0  0  0  0  0  0  0  0
   -0.7023    4.0468   -2.6906 C   0  0  0  0  0  0  0  0  0  0  0  0
   -0.0449    4.3585   -1.5024 C   0  0  0  0  0  0  0  0  0  0  0  0
    0.4982    3.3336   -0.7189 C   0  0  0  0  0  0  0  0  0  0  0  0
    1.3002    3.7374    0.7242 Cl  0  0  0  0  0  0  0  0  0  0  0  0
   -0.3361   -4.6092    1.8173 H   0  0  0  0  0  0  0  0  0  0  0  0
   -1.2780   -3.6381    0.5951 H   0  0  0  0  0  0  0  0  0  0  0  0
   -0.3881   -5.1395    0.0796 H   0  0  0  0  0  0  0  0  0  0  0  0
   -1.3651    1.9507    0.9002 H   0  0  0  0  0  0  0  0  0  0  0  0
    3.0627   -0.0736    1.3439 H   0  0  0  0  0  0  0  0  0  0  0  0
    3.9373   -0.4470   -0.2195 H   0  0  0  0  0  0  0  0  0  0  0  0
   -0.3608    0.6495   -2.6508 H   0  0  0  0  0  0  0  0  0  0  0  0
   -1.3323    2.4761   -4.0437 H   0  0  0  0  0  0  0  0  0  0  0  0
   -1.1258    4.8540   -3.3071 H   0  0  0  0  0  0  0  0  0  0  0  0
    0.0533    5.4072   -1.1828 H   0  0  0  0  0  0  0  0  0  0  0  0
  1  2  1  0  0  0  0
  1 23  1  0  0  0  0
  1 24  1  0  0  0  0
  1 25  1  0  0  0  0
  2  3  2  0  0  0  0
  2  6  1  0  0  0  0
  3  4  1  0  0  0  0
  4  5  2  0  0  0  0
  5  6  1  0  0  0  0
  5 15  1  0  0  0  0
  6  7  1  0  0  0  0
  7  8  2  0  0  0  0
  7 11  1  0  0  0  0
  8  9  1  0  0  0  0
  8 13  1  0  0  0  0
  9 10  2  0  0  0  0
  9 26  1  0  0  0  0
 10 11  1  0  0  0  0
 10 12  1  0  0  0  0
 13 14  2  0  0  0  0
 13 16  1  0  0  0  0
 14 15  1  0  0  0  0
 15 27  1  0  0  0  0
 15 28  1  0  0  0  0
 16 17  2  0  0  0  0
 16 21  1  0  0  0  0
 17 18  1  0  0  0  0
 17 29  1  0  0  0  0
 18 19  2  0  0  0  0
 18 30  1  0  0  0  0
 19 20  1  0  0  0  0
 19 31  1  0  0  0  0
 20 21  2  0  0  0  0
 20 32  1  0  0  0  0
 21 22  1  0  0  0  0
M  END
