./056881-36-8.hin
 OpenBabel10051109203D

 17 18  0  0  0  0  0  0  0  0999 V2000
   -3.2650   -1.7596    0.0000 C   0  0  0  0  0  0  0  0  0  0  0  0
   -1.9767   -0.9924    0.0000 C   0  0  0  0  0  0  0  0  0  0  0  0
   -2.0263    0.3377    0.0000 N   0  0  0  0  0  0  0  0  0  0  0  0
   -0.8455    1.0950    0.0000 C   0  0  0  0  0  0  0  0  0  0  0  0
   -0.7787    2.3337   -0.0000 O   0  0  0  0  0  0  0  0  0  0  0  0
    0.4141    0.3753    0.0000 N   0  0  0  0  0  0  0  0  0  0  0  0
    1.7738    0.7701   -0.0000 C   0  0  0  0  0  0  0  0  0  0  0  0
    2.5733   -0.3077   -0.0000 N   0  0  0  0  0  0  0  0  0  0  0  0
    1.7724   -1.4003   -0.0000 N   0  0  0  0  0  0  0  0  0  0  0  0
    0.4169   -1.0399   -0.0000 C   0  0  0  0  0  0  0  0  0  0  0  0
   -0.7676   -1.7640   -0.0000 C   0  0  0  0  0  0  0  0  0  0  0  0
   -3.8678   -1.5020   -0.9067 H   0  0  0  0  0  0  0  0  0  0  0  0
   -3.0634   -2.8576   -0.0000 H   0  0  0  0  0  0  0  0  0  0  0  0
   -3.8678   -1.5020    0.9067 H   0  0  0  0  0  0  0  0  0  0  0  0
    2.0792    1.8249    0.0000 H   0  0  0  0  0  0  0  0  0  0  0  0
   -0.7810   -2.8558   -0.0000 H   0  0  0  0  0  0  0  0  0  0  0  0
    2.1539   -2.3152    0.0000 H   0  0  0  0  0  0  0  0  0  0  0  0
  1  2  1  0  0  0  0
  1 12  1  0  0  0  0
  1 13  1  0  0  0  0
  1 14  1  0  0  0  0
  2  3  2  0  0  0  0
  2 11  1  0  0  0  0
  3  4  1  0  0  0  0
  4  5  2  0  0  0  0
  4  6  1  0  0  0  0
  6  7  1  0  0  0  0
  6 10  1  0  0  0  0
  7  8  2  0  0  0  0
  7 15  1  0  0  0  0
  8  9  1  0  0  0  0
  9 10  1  0  0  0  0
  9 17  1  0  0  0  0
 10 11  2  0  0  0  0
 11 16  1  0  0  0  0
M  END
