./057801-81-7.hin
 OpenBabel10051109203D

 32 35  0  0  0  0  0  0  0  0999 V2000
    0.3288    0.0838    0.5393 C   0  0  0  0  0  0  0  0  0  0  0  0
    0.1492    1.4723    0.5938 C   0  0  0  0  0  0  0  0  0  0  0  0
    1.1281    2.4235    0.3737 N   0  0  0  0  0  0  0  0  0  0  0  0
    2.5257    2.2550    0.5270 C   0  0  0  0  0  0  0  0  0  0  0  0
    3.1316    3.4295    0.1916 N   0  0  0  0  0  0  0  0  0  0  0  0
    2.2189    4.3172   -0.1545 N   0  0  0  0  0  0  0  0  0  0  0  0
    0.9736    3.7658   -0.0676 C   0  0  0  0  0  0  0  0  0  0  0  0
   -0.3248    4.4037   -0.3750 C   0  0  0  0  0  0  0  0  0  0  0  0
    3.1782    0.9958    1.0083 C   0  0  0  0  0  0  0  0  0  0  0  0
    2.7890   -0.2279    0.3777 N   0  0  0  0  0  0  0  0  0  0  0  0
    1.5722   -0.6134    0.1924 C   0  0  0  0  0  0  0  0  0  0  0  0
    1.3524   -1.9438   -0.4437 C   0  0  0  0  0  0  0  0  0  0  0  0
    1.0917   -2.0568   -1.8166 C   0  0  0  0  0  0  0  0  0  0  0  0
    0.8856   -3.3170   -2.3909 C   0  0  0  0  0  0  0  0  0  0  0  0
    0.9493   -4.4594   -1.5965 C   0  0  0  0  0  0  0  0  0  0  0  0
    1.2214   -4.3523   -0.2324 C   0  0  0  0  0  0  0  0  0  0  0  0
    1.4266   -3.0994    0.3416 C   0  0  0  0  0  0  0  0  0  0  0  0
    1.0253   -0.6796   -2.8087 Cl  0  0  0  0  0  0  0  0  0  0  0  0
   -1.4550    1.8558    0.9912 S   0  0  0  0  0  0  0  0  0  0  0  0
   -1.9264    0.2558    1.1112 C   0  0  0  0  0  0  0  0  0  0  0  0
   -0.8833   -0.6078    0.8465 C   0  0  0  0  0  0  0  0  0  0  0  0
   -3.6439   -0.2155    1.5343 Br  0  0  0  0  0  0  0  0  0  0  0  0
   -0.1768    5.4968   -0.5649 H   0  0  0  0  0  0  0  0  0  0  0  0
   -0.7753    3.9388   -1.2883 H   0  0  0  0  0  0  0  0  0  0  0  0
   -1.0350    4.2840    0.4839 H   0  0  0  0  0  0  0  0  0  0  0  0
    3.0166    0.9255    2.1264 H   0  0  0  0  0  0  0  0  0  0  0  0
    4.2917    1.0883    0.8240 H   0  0  0  0  0  0  0  0  0  0  0  0
    0.6797   -3.4032   -3.4689 H   0  0  0  0  0  0  0  0  0  0  0  0
    0.7894   -5.4489   -2.0507 H   0  0  0  0  0  0  0  0  0  0  0  0
    1.2811   -5.2568    0.3909 H   0  0  0  0  0  0  0  0  0  0  0  0
    1.6564   -3.0129    1.4145 H   0  0  0  0  0  0  0  0  0  0  0  0
   -0.9441   -1.7017    0.8560 H   0  0  0  0  0  0  0  0  0  0  0  0
  1  2  2  0  0  0  0
  1 11  1  0  0  0  0
  1 21  1  0  0  0  0
  2  3  1  0  0  0  0
  2 19  1  0  0  0  0
  3  4  1  0  0  0  0
  3  7  1  0  0  0  0
  4  5  2  0  0  0  0
  4  9  1  0  0  0  0
  5  6  1  0  0  0  0
  6  7  2  0  0  0  0
  7  8  1  0  0  0  0
  8 23  1  0  0  0  0
  8 24  1  0  0  0  0
  8 25  1  0  0  0  0
  9 10  1  0  0  0  0
  9 26  1  0  0  0  0
  9 27  1  0  0  0  0
 10 11  2  0  0  0  0
 11 12  1  0  0  0  0
 12 13  2  0  0  0  0
 12 17  1  0  0  0  0
 13 14  1  0  0  0  0
 13 18  1  0  0  0  0
 14 15  2  0  0  0  0
 14 28  1  0  0  0  0
 15 16  1  0  0  0  0
 15 29  1  0  0  0  0
 16 17  2  0  0  0  0
 16 30  1  0  0  0  0
 17 31  1  0  0  0  0
 19 20  1  0  0  0  0
 20 21  2  0  0  0  0
 20 22  1  0  0  0  0
 21 32  1  0  0  0  0
M  END
