./059338-86-2.hin
 OpenBabel10051109203D

 24 25  0  0  0  0  0  0  0  0999 V2000
   -0.3159   -3.7529   -0.0000 N   0  0  0  0  0  0  0  0  0  0  0  0
    0.9949   -4.0142   -0.0000 N   0  0  0  0  0  0  0  0  0  0  0  0
    1.8322   -2.9880    0.0000 N   0  0  0  0  0  0  0  0  0  0  0  0
    1.0080   -1.8816    0.0000 C   0  0  0  0  0  0  0  0  0  0  0  0
   -0.3827   -2.3787   -0.0000 C   0  0  0  0  0  0  0  0  0  0  0  0
    1.2609   -0.4898    0.0000 C   0  0  0  0  0  0  0  0  0  0  0  0
    0.1912    0.3789    0.0000 C   0  0  0  0  0  0  0  0  0  0  0  0
   -1.1657   -0.1161   -0.0000 C   0  0  0  0  0  0  0  0  0  0  0  0
   -1.4617   -1.4634   -0.0000 C   0  0  0  0  0  0  0  0  0  0  0  0
    0.5000    1.8183    0.0000 C   0  0  0  0  0  0  0  0  0  0  0  0
    1.6277    2.3276    0.0000 O   0  0  0  0  0  0  0  0  0  0  0  0
   -0.5778    2.6570    0.0000 O   0  0  0  0  0  0  0  0  0  0  0  0
   -2.1250    0.8707   -0.0000 O   0  0  0  0  0  0  0  0  0  0  0  0
   -3.4818    0.4351   -0.0000 C   0  0  0  0  0  0  0  0  0  0  0  0
   -0.2870    4.0571    0.0000 C   0  0  0  0  0  0  0  0  0  0  0  0
    2.2969   -0.1080    0.0000 H   0  0  0  0  0  0  0  0  0  0  0  0
   -2.4910   -1.8448   -0.0000 H   0  0  0  0  0  0  0  0  0  0  0  0
   -4.0565    1.3962   -0.0000 H   0  0  0  0  0  0  0  0  0  0  0  0
   -3.7054   -0.1594   -0.9188 H   0  0  0  0  0  0  0  0  0  0  0  0
   -3.7054   -0.1594    0.9188 H   0  0  0  0  0  0  0  0  0  0  0  0
   -1.2989    4.5316   -0.0000 H   0  0  0  0  0  0  0  0  0  0  0  0
    0.2934    4.3267    0.9147 H   0  0  0  0  0  0  0  0  0  0  0  0
    0.2934    4.3267   -0.9147 H   0  0  0  0  0  0  0  0  0  0  0  0
    1.3315   -4.9609   -0.0000 H   0  0  0  0  0  0  0  0  0  0  0  0
  1  2  1  0  0  0  0
  1  5  2  0  0  0  0
  2  3  1  0  0  0  0
  2 24  1  0  0  0  0
  3  4  2  0  0  0  0
  4  5  1  0  0  0  0
  4  6  1  0  0  0  0
  5  9  1  0  0  0  0
  6  7  2  0  0  0  0
  6 16  1  0  0  0  0
  7  8  1  0  0  0  0
  7 10  1  0  0  0  0
  8  9  2  0  0  0  0
  8 13  1  0  0  0  0
  9 17  1  0  0  0  0
 10 11  2  0  0  0  0
 10 12  1  0  0  0  0
 12 15  1  0  0  0  0
 13 14  1  0  0  0  0
 14 18  1  0  0  0  0
 14 19  1  0  0  0  0
 14 20  1  0  0  0  0
 15 21  1  0  0  0  0
 15 22  1  0  0  0  0
 15 23  1  0  0  0  0
M  END
