./060207-93-4.hin
 OpenBabel10051109203D

 36 38  0  0  0  0  0  0  0  0999 V2000
    0.3589   -2.7025    1.3764 C   0  0  0  0  0  0  0  0  0  0  0  0
    1.6616   -2.1329    1.6006 N   0  0  0  0  0  0  0  0  0  0  0  0
    1.9954   -1.3587    2.6527 N   0  0  0  0  0  0  0  0  0  0  0  0
    3.3191   -1.0949    2.4763 C   0  0  0  0  0  0  0  0  0  0  0  0
    3.8508   -1.6871    1.3131 N   0  0  0  0  0  0  0  0  0  0  0  0
    2.7950   -2.3306    0.7777 C   0  0  0  0  0  0  0  0  0  0  0  0
   -0.3943   -2.1503    0.1269 C   0  0  0  0  0  0  0  0  0  0  0  0
   -0.7578   -0.6928    0.2839 C   0  0  0  0  0  0  0  0  0  0  0  0
    0.0753    0.3836   -0.0522 C   0  0  0  0  0  0  0  0  0  0  0  0
   -0.3458    1.7044    0.1662 C   0  0  0  0  0  0  0  0  0  0  0  0
   -1.5980    1.9517    0.7266 C   0  0  0  0  0  0  0  0  0  0  0  0
   -2.4372    0.8888    1.0774 C   0  0  0  0  0  0  0  0  0  0  0  0
   -1.5814   -2.9529    0.0308 O   0  0  0  0  0  0  0  0  0  0  0  0
   -1.7605   -3.4296   -1.3056 C   0  0  0  0  0  0  0  0  0  0  0  0
   -0.4265   -3.1748   -2.0065 C   0  0  0  0  0  0  0  0  0  0  0  0
   -0.5066   -2.4186   -3.3203 C   0  0  0  0  0  0  0  0  0  0  0  0
   -1.2173   -1.0943   -3.2398 C   0  0  0  0  0  0  0  0  0  0  0  0
    0.3582   -2.4443   -1.0451 O   0  0  0  0  0  0  0  0  0  0  0  0
   -2.0110   -0.4148    0.8554 C   0  0  0  0  0  0  0  0  0  0  0  0
    1.6263    0.1905   -0.7154 Cl  0  0  0  0  0  0  0  0  0  0  0  0
   -2.1037    3.5515    0.9871 Cl  0  0  0  0  0  0  0  0  0  0  0  0
    0.4848   -3.8123    1.2247 H   0  0  0  0  0  0  0  0  0  0  0  0
   -0.3065   -2.5230    2.2677 H   0  0  0  0  0  0  0  0  0  0  0  0
    3.9199   -0.4860    3.1588 H   0  0  0  0  0  0  0  0  0  0  0  0
    2.7535   -2.9014   -0.1563 H   0  0  0  0  0  0  0  0  0  0  0  0
    0.3183    2.5424   -0.1013 H   0  0  0  0  0  0  0  0  0  0  0  0
   -3.4233    1.0800    1.5270 H   0  0  0  0  0  0  0  0  0  0  0  0
   -2.6113   -2.8691   -1.7676 H   0  0  0  0  0  0  0  0  0  0  0  0
   -2.0080   -4.5172   -1.2179 H   0  0  0  0  0  0  0  0  0  0  0  0
    0.1345   -4.1382   -2.1699 H   0  0  0  0  0  0  0  0  0  0  0  0
    0.5446   -2.2479   -3.6784 H   0  0  0  0  0  0  0  0  0  0  0  0
   -1.0182   -3.0833   -4.0658 H   0  0  0  0  0  0  0  0  0  0  0  0
   -1.0498   -0.5138   -4.1792 H   0  0  0  0  0  0  0  0  0  0  0  0
   -2.3178   -1.2293   -3.1070 H   0  0  0  0  0  0  0  0  0  0  0  0
   -0.8265   -0.4979   -2.3774 H   0  0  0  0  0  0  0  0  0  0  0  0
   -2.6718   -1.2546    1.1303 H   0  0  0  0  0  0  0  0  0  0  0  0
  1  2  1  0  0  0  0
  1  7  1  0  0  0  0
  1 22  1  0  0  0  0
  1 23  1  0  0  0  0
  2  3  1  0  0  0  0
  2  6  1  0  0  0  0
  3  4  2  0  0  0  0
  4  5  1  0  0  0  0
  4 24  1  0  0  0  0
  5  6  2  0  0  0  0
  6 25  1  0  0  0  0
  7  8  1  0  0  0  0
  7 13  1  0  0  0  0
  7 18  1  0  0  0  0
  8  9  2  0  0  0  0
  8 19  1  0  0  0  0
  9 10  1  0  0  0  0
  9 20  1  0  0  0  0
 10 11  2  0  0  0  0
 10 26  1  0  0  0  0
 11 12  1  0  0  0  0
 11 21  1  0  0  0  0
 12 19  2  0  0  0  0
 12 27  1  0  0  0  0
 13 14  1  0  0  0  0
 14 15  1  0  0  0  0
 14 28  1  0  0  0  0
 14 29  1  0  0  0  0
 15 16  1  0  0  0  0
 15 18  1  0  0  0  0
 15 30  1  0  0  0  0
 16 17  1  0  0  0  0
 16 31  1  0  0  0  0
 16 32  1  0  0  0  0
 17 33  1  0  0  0  0
 17 34  1  0  0  0  0
 17 35  1  0  0  0  0
 19 36  1  0  0  0  0
M  END
