./061691-97-2.hin
 OpenBabel10051109203D

 33 34  0  0  0  0  0  0  0  0999 V2000
   -0.6546   -0.1454    2.0236 C   0  0  0  0  0  0  0  0  0  0  0  0
   -1.9085   -0.8603    1.4934 C   0  0  0  0  0  0  0  0  0  0  0  0
   -1.7990   -1.5411    0.2295 N   0  0  0  0  0  0  0  0  0  0  0  0
   -1.3776   -2.9205    0.2476 C   0  0  0  0  0  0  0  0  0  0  0  0
   -0.1098   -3.2600    1.0474 C   0  0  0  0  0  0  0  0  0  0  0  0
    0.0439   -4.6660    0.9321 O   0  0  0  0  0  0  0  0  0  0  0  0
   -1.5101   -0.7599   -0.9388 C   0  0  0  0  0  0  0  0  0  0  0  0
   -0.1260   -0.3391   -1.2082 N   0  0  0  0  0  0  0  0  0  0  0  0
    0.8834   -1.1660   -1.5919 N   0  0  0  0  0  0  0  0  0  0  0  0
    1.9753   -0.5536   -1.7474 N   0  0  0  0  0  0  0  0  0  0  0  0
    1.7813    0.8292   -1.4523 C   0  0  0  0  0  0  0  0  0  0  0  0
    0.3847    0.9688   -1.0854 C   0  0  0  0  0  0  0  0  0  0  0  0
    2.6229    1.9445   -1.4683 C   0  0  0  0  0  0  0  0  0  0  0  0
    2.0715    3.1701   -1.1210 C   0  0  0  0  0  0  0  0  0  0  0  0
    0.7156    3.3009   -0.7664 C   0  0  0  0  0  0  0  0  0  0  0  0
   -0.1492    2.2155   -0.7412 C   0  0  0  0  0  0  0  0  0  0  0  0
   -0.9730    0.2511    3.3476 O   0  0  0  0  0  0  0  0  0  0  0  0
    0.2362   -0.8285    2.0318 H   0  0  0  0  0  0  0  0  0  0  0  0
   -0.4164    0.7577    1.3985 H   0  0  0  0  0  0  0  0  0  0  0  0
   -2.2373   -1.6085    2.2706 H   0  0  0  0  0  0  0  0  0  0  0  0
   -2.7253   -0.0879    1.3977 H   0  0  0  0  0  0  0  0  0  0  0  0
   -1.2252   -3.2779   -0.8101 H   0  0  0  0  0  0  0  0  0  0  0  0
   -2.2268   -3.5169    0.6933 H   0  0  0  0  0  0  0  0  0  0  0  0
    0.7885   -2.7301    0.6376 H   0  0  0  0  0  0  0  0  0  0  0  0
   -0.2354   -2.9901    2.1311 H   0  0  0  0  0  0  0  0  0  0  0  0
    0.9388   -4.8691    1.2269 H   0  0  0  0  0  0  0  0  0  0  0  0
   -2.1056    0.2013   -0.8758 H   0  0  0  0  0  0  0  0  0  0  0  0
   -1.8399   -1.3634   -1.8406 H   0  0  0  0  0  0  0  0  0  0  0  0
    3.6812    1.8467   -1.7495 H   0  0  0  0  0  0  0  0  0  0  0  0
    2.7069    4.0688   -1.1238 H   0  0  0  0  0  0  0  0  0  0  0  0
    0.3309    4.2985   -0.5020 H   0  0  0  0  0  0  0  0  0  0  0  0
   -1.2059    2.3310   -0.4661 H   0  0  0  0  0  0  0  0  0  0  0  0
   -0.2026    0.7232    3.6842 H   0  0  0  0  0  0  0  0  0  0  0  0
  1  2  1  0  0  0  0
  1 17  1  0  0  0  0
  1 18  1  0  0  0  0
  1 19  1  0  0  0  0
  2  3  1  0  0  0  0
  2 20  1  0  0  0  0
  2 21  1  0  0  0  0
  3  4  1  0  0  0  0
  3  7  1  0  0  0  0
  4  5  1  0  0  0  0
  4 22  1  0  0  0  0
  4 23  1  0  0  0  0
  5  6  1  0  0  0  0
  5 24  1  0  0  0  0
  5 25  1  0  0  0  0
  6 26  1  0  0  0  0
  7  8  1  0  0  0  0
  7 27  1  0  0  0  0
  7 28  1  0  0  0  0
  8  9  1  0  0  0  0
  8 12  1  0  0  0  0
  9 10  2  0  0  0  0
 10 11  1  0  0  0  0
 11 12  2  0  0  0  0
 11 13  1  0  0  0  0
 12 16  1  0  0  0  0
 13 14  2  0  0  0  0
 13 29  1  0  0  0  0
 14 15  1  0  0  0  0
 14 30  1  0  0  0  0
 15 16  2  0  0  0  0
 15 31  1  0  0  0  0
 16 32  1  0  0  0  0
 17 33  1  0  0  0  0
M  END
