./066492-64-6.hin
 OpenBabel10051109203D

 26 27  0  0  0  0  0  0  0  0999 V2000
   -1.2278   -2.7158   -0.0000 N   0  0  0  0  0  0  0  0  0  0  0  0
   -1.2429   -1.3595   -0.0000 N   0  0  0  0  0  0  0  0  0  0  0  0
    0.0614   -0.9629   -0.0000 C   0  0  0  0  0  0  0  0  0  0  0  0
    0.9453   -2.0751   -0.0000 N   0  0  0  0  0  0  0  0  0  0  0  0
    0.1397   -3.1572   -0.0000 C   0  0  0  0  0  0  0  0  0  0  0  0
    0.6726   -4.5434   -0.0000 C   0  0  0  0  0  0  0  0  0  0  0  0
    0.5171    0.4265    0.0000 C   0  0  0  0  0  0  0  0  0  0  0  0
    1.8883    0.7214   -0.0000 C   0  0  0  0  0  0  0  0  0  0  0  0
    2.3220    2.0450   -0.0000 C   0  0  0  0  0  0  0  0  0  0  0  0
    1.3844    3.0822    0.0000 C   0  0  0  0  0  0  0  0  0  0  0  0
    0.0154    2.7991    0.0000 C   0  0  0  0  0  0  0  0  0  0  0  0
   -0.4157    1.4744    0.0000 C   0  0  0  0  0  0  0  0  0  0  0  0
    1.9127    4.6978    0.0000 Cl  0  0  0  0  0  0  0  0  0  0  0  0
   -2.4623   -3.4537   -0.0000 C   0  0  0  0  0  0  0  0  0  0  0  0
   -3.5411   -2.8522    0.0000 O   0  0  0  0  0  0  0  0  0  0  0  0
   -2.4278   -4.9555   -0.0000 C   0  0  0  0  0  0  0  0  0  0  0  0
    1.3140   -4.6851    0.9086 H   0  0  0  0  0  0  0  0  0  0  0  0
   -0.1107   -5.3313    0.0000 H   0  0  0  0  0  0  0  0  0  0  0  0
    1.3139   -4.6851   -0.9086 H   0  0  0  0  0  0  0  0  0  0  0  0
    2.6361   -0.0874   -0.0000 H   0  0  0  0  0  0  0  0  0  0  0  0
    3.3995    2.2692   -0.0000 H   0  0  0  0  0  0  0  0  0  0  0  0
   -0.7223    3.6158    0.0000 H   0  0  0  0  0  0  0  0  0  0  0  0
   -1.4971    1.2635    0.0000 H   0  0  0  0  0  0  0  0  0  0  0  0
   -3.4860   -5.3237   -0.0000 H   0  0  0  0  0  0  0  0  0  0  0  0
   -1.9209   -5.3404   -0.9179 H   0  0  0  0  0  0  0  0  0  0  0  0
   -1.9209   -5.3404    0.9179 H   0  0  0  0  0  0  0  0  0  0  0  0
  1  2  1  0  0  0  0
  1  5  1  0  0  0  0
  1 14  1  0  0  0  0
  2  3  2  0  0  0  0
  3  4  1  0  0  0  0
  3  7  1  0  0  0  0
  4  5  2  0  0  0  0
  5  6  1  0  0  0  0
  6 17  1  0  0  0  0
  6 18  1  0  0  0  0
  6 19  1  0  0  0  0
  7  8  2  0  0  0  0
  7 12  1  0  0  0  0
  8  9  1  0  0  0  0
  8 20  1  0  0  0  0
  9 10  2  0  0  0  0
  9 21  1  0  0  0  0
 10 11  1  0  0  0  0
 10 13  1  0  0  0  0
 11 12  2  0  0  0  0
 11 22  1  0  0  0  0
 12 23  1  0  0  0  0
 14 15  2  0  0  0  0
 14 16  1  0  0  0  0
 16 24  1  0  0  0  0
 16 25  1  0  0  0  0
 16 26  1  0  0  0  0
M  END
