./066535-86-2.hin
 OpenBabel10051109203D

 30 33  0  0  0  0  0  0  0  0999 V2000
    0.8770    0.1515    0.0709 N   0  0  0  0  0  0  0  0  0  0  0  0
   -1.3187   -0.6169    0.2097 N   0  0  0  0  0  0  0  0  0  0  0  0
    0.0108   -0.9672    0.0745 C   0  0  0  0  0  0  0  0  0  0  0  0
    0.4851   -2.3451   -0.0521 C   0  0  0  0  0  0  0  0  0  0  0  0
    1.8564   -2.6100   -0.1862 C   0  0  0  0  0  0  0  0  0  0  0  0
    2.3112   -3.9210   -0.3067 C   0  0  0  0  0  0  0  0  0  0  0  0
    1.3951   -4.9770   -0.2937 C   0  0  0  0  0  0  0  0  0  0  0  0
    0.0266   -4.7247   -0.1608 C   0  0  0  0  0  0  0  0  0  0  0  0
   -0.4252   -3.4126   -0.0405 C   0  0  0  0  0  0  0  0  0  0  0  0
    1.9485   -6.5775   -0.4405 Cl  0  0  0  0  0  0  0  0  0  0  0  0
   -1.3083    0.7208    0.2928 N   0  0  0  0  0  0  0  0  0  0  0  0
    0.0409    1.2114    0.2087 C   0  0  0  0  0  0  0  0  0  0  0  0
    0.2875    2.6335    0.2772 C   0  0  0  0  0  0  0  0  0  0  0  0
   -0.8263    3.4944    0.4264 C   0  0  0  0  0  0  0  0  0  0  0  0
   -2.1535    2.9437    0.5048 C   0  0  0  0  0  0  0  0  0  0  0  0
   -2.3817    1.5995    0.4396 C   0  0  0  0  0  0  0  0  0  0  0  0
    1.5891    3.1616    0.1994 C   0  0  0  0  0  0  0  0  0  0  0  0
    1.7789    4.5319    0.2697 C   0  0  0  0  0  0  0  0  0  0  0  0
    0.6799    5.3935    0.4178 C   0  0  0  0  0  0  0  0  0  0  0  0
   -0.6053    4.8851    0.4953 C   0  0  0  0  0  0  0  0  0  0  0  0
    2.5880   -1.7865   -0.1977 H   0  0  0  0  0  0  0  0  0  0  0  0
    3.3885   -4.1203   -0.4114 H   0  0  0  0  0  0  0  0  0  0  0  0
   -0.6943   -5.5562   -0.1507 H   0  0  0  0  0  0  0  0  0  0  0  0
   -1.5060   -3.2284    0.0635 H   0  0  0  0  0  0  0  0  0  0  0  0
   -3.0020    3.6342    0.6206 H   0  0  0  0  0  0  0  0  0  0  0  0
   -3.3858    1.1436    0.4964 H   0  0  0  0  0  0  0  0  0  0  0  0
    2.4457    2.4791    0.0832 H   0  0  0  0  0  0  0  0  0  0  0  0
    2.7943    4.9516    0.2095 H   0  0  0  0  0  0  0  0  0  0  0  0
    0.8472    6.4800    0.4721 H   0  0  0  0  0  0  0  0  0  0  0  0
   -1.4667    5.5598    0.6114 H   0  0  0  0  0  0  0  0  0  0  0  0
  1  3  1  0  0  0  0
  1 12  2  0  0  0  0
  2  3  2  0  0  0  0
  2 11  1  0  0  0  0
  3  4  1  0  0  0  0
  4  5  2  0  0  0  0
  4  9  1  0  0  0  0
  5  6  1  0  0  0  0
  5 21  1  0  0  0  0
  6  7  2  0  0  0  0
  6 22  1  0  0  0  0
  7  8  1  0  0  0  0
  7 10  1  0  0  0  0
  8  9  2  0  0  0  0
  8 23  1  0  0  0  0
  9 24  1  0  0  0  0
 11 12  1  0  0  0  0
 11 16  1  0  0  0  0
 12 13  1  0  0  0  0
 13 14  2  0  0  0  0
 13 17  1  0  0  0  0
 14 15  1  0  0  0  0
 14 20  1  0  0  0  0
 15 16  2  0  0  0  0
 15 25  1  0  0  0  0
 16 26  1  0  0  0  0
 17 18  2  0  0  0  0
 17 27  1  0  0  0  0
 18 19  1  0  0  0  0
 18 28  1  0  0  0  0
 19 20  2  0  0  0  0
 19 29  1  0  0  0  0
 20 30  1  0  0  0  0
M  END
