./070292-10-3.hin
 OpenBabel10051109203D

 30 32  0  0  0  0  0  0  0  0999 V2000
    0.5727   -3.0525   -0.0000 C   0  0  0  0  0  0  0  0  0  0  0  0
   -0.4631   -2.0101   -0.0000 C   0  0  0  0  0  0  0  0  0  0  0  0
   -1.8463   -2.3711   -0.0000 C   0  0  0  0  0  0  0  0  0  0  0  0
   -2.5937   -1.1753    0.0000 N   0  0  0  0  0  0  0  0  0  0  0  0
   -1.7964   -0.2008    0.0000 N   0  0  0  0  0  0  0  0  0  0  0  0
   -0.4803   -0.6011    0.0000 N   0  0  0  0  0  0  0  0  0  0  0  0
    0.5992    0.3464    0.0000 C   0  0  0  0  0  0  0  0  0  0  0  0
    1.9090   -0.1153    0.0000 C   0  0  0  0  0  0  0  0  0  0  0  0
    3.0173    0.7563    0.0000 C   0  0  0  0  0  0  0  0  0  0  0  0
    2.8296    2.1095   -0.0000 C   0  0  0  0  0  0  0  0  0  0  0  0
    1.5108    2.6382   -0.0000 C   0  0  0  0  0  0  0  0  0  0  0  0
    1.3545    4.0523   -0.0000 C   0  0  0  0  0  0  0  0  0  0  0  0
    0.1091    4.6258   -0.0000 C   0  0  0  0  0  0  0  0  0  0  0  0
   -1.0284    3.7916   -0.0000 C   0  0  0  0  0  0  0  0  0  0  0  0
   -0.9006    2.4220   -0.0000 C   0  0  0  0  0  0  0  0  0  0  0  0
    0.3710    1.7819   -0.0000 C   0  0  0  0  0  0  0  0  0  0  0  0
   -2.3752   -3.7196   -0.0000 C   0  0  0  0  0  0  0  0  0  0  0  0
   -1.7260   -4.7758   -0.0000 O   0  0  0  0  0  0  0  0  0  0  0  0
   -3.7313   -3.8359   -0.0000 O   0  0  0  0  0  0  0  0  0  0  0  0
    0.4065   -3.7021   -0.9031 H   0  0  0  0  0  0  0  0  0  0  0  0
    1.6322   -2.7279   -0.0000 H   0  0  0  0  0  0  0  0  0  0  0  0
    0.4065   -3.7020    0.9031 H   0  0  0  0  0  0  0  0  0  0  0  0
    2.1605   -1.1807    0.0000 H   0  0  0  0  0  0  0  0  0  0  0  0
    4.0279    0.3202    0.0000 H   0  0  0  0  0  0  0  0  0  0  0  0
    3.6826    2.8051   -0.0000 H   0  0  0  0  0  0  0  0  0  0  0  0
    2.2615    4.6765   -0.0000 H   0  0  0  0  0  0  0  0  0  0  0  0
   -0.0145    5.7186   -0.0000 H   0  0  0  0  0  0  0  0  0  0  0  0
   -2.0297    4.2493   -0.0000 H   0  0  0  0  0  0  0  0  0  0  0  0
   -1.8374    1.8435   -0.0000 H   0  0  0  0  0  0  0  0  0  0  0  0
   -3.9630   -4.7807   -0.0000 H   0  0  0  0  0  0  0  0  0  0  0  0
  1  2  1  0  0  0  0
  1 20  1  0  0  0  0
  1 21  1  0  0  0  0
  1 22  1  0  0  0  0
  2  3  2  0  0  0  0
  2  6  1  0  0  0  0
  3  4  1  0  0  0  0
  3 17  1  0  0  0  0
  4  5  2  0  0  0  0
  5  6  1  0  0  0  0
  6  7  1  0  0  0  0
  7  8  2  0  0  0  0
  7 16  1  0  0  0  0
  8  9  1  0  0  0  0
  8 23  1  0  0  0  0
  9 10  2  0  0  0  0
  9 24  1  0  0  0  0
 10 11  1  0  0  0  0
 10 25  1  0  0  0  0
 11 12  2  0  0  0  0
 11 16  1  0  0  0  0
 12 13  1  0  0  0  0
 12 26  1  0  0  0  0
 13 14  2  0  0  0  0
 13 27  1  0  0  0  0
 14 15  1  0  0  0  0
 14 28  1  0  0  0  0
 15 16  2  0  0  0  0
 15 29  1  0  0  0  0
 17 18  2  0  0  0  0
 17 19  1  0  0  0  0
 19 30  1  0  0  0  0
M  END
