./075736-33-3.hin
 OpenBabel10051109203D

 40 41  0  0  0  0  0  0  0  0999 V2000
    1.5262    1.3973    1.0990 N   0  0  0  0  0  0  0  0  0  0  0  0
    0.9289    0.1568    0.6000 C   0  0  0  0  0  0  0  0  0  0  0  0
    0.2698    0.3302   -0.7823 C   0  0  0  0  0  0  0  0  0  0  0  0
   -1.1956    0.5858   -0.7136 C   0  0  0  0  0  0  0  0  0  0  0  0
   -2.0967   -0.0817   -1.5618 C   0  0  0  0  0  0  0  0  0  0  0  0
   -3.4712    0.1748   -1.5034 C   0  0  0  0  0  0  0  0  0  0  0  0
   -3.9571    1.1162   -0.5949 C   0  0  0  0  0  0  0  0  0  0  0  0
   -5.6242    1.4278   -0.5159 Cl  0  0  0  0  0  0  0  0  0  0  0  0
   -3.0769    1.8057    0.2445 C   0  0  0  0  0  0  0  0  0  0  0  0
   -1.7136    1.5376    0.1753 C   0  0  0  0  0  0  0  0  0  0  0  0
   -1.5673   -1.2221   -2.7097 Cl  0  0  0  0  0  0  0  0  0  0  0  0
    1.9880   -0.9910    0.5848 C   0  0  0  0  0  0  0  0  0  0  0  0
    1.4120   -2.3755    0.9589 C   0  0  0  0  0  0  0  0  0  0  0  0
    2.5611   -3.3796    0.9059 C   0  0  0  0  0  0  0  0  0  0  0  0
    0.8615   -2.3432    2.3779 C   0  0  0  0  0  0  0  0  0  0  0  0
    0.3268   -2.8188   -0.0050 C   0  0  0  0  0  0  0  0  0  0  0  0
    2.5817   -1.1058   -0.6969 O   0  0  0  0  0  0  0  0  0  0  0  0
    1.1155    2.1064    2.2487 C   0  0  0  0  0  0  0  0  0  0  0  0
    1.9042    3.1902    2.4093 N   0  0  0  0  0  0  0  0  0  0  0  0
    2.7992    3.1080    1.3280 C   0  0  0  0  0  0  0  0  0  0  0  0
    2.5735    2.0222    0.5344 N   0  0  0  0  0  0  0  0  0  0  0  0
    0.1300   -0.1138    1.3522 H   0  0  0  0  0  0  0  0  0  0  0  0
    0.7509    1.1674   -1.3588 H   0  0  0  0  0  0  0  0  0  0  0  0
    0.4727   -0.6097   -1.3705 H   0  0  0  0  0  0  0  0  0  0  0  0
   -4.1631   -0.3612   -2.1731 H   0  0  0  0  0  0  0  0  0  0  0  0
   -3.4565    2.5590    0.9519 H   0  0  0  0  0  0  0  0  0  0  0  0
   -1.0310    2.1019    0.8299 H   0  0  0  0  0  0  0  0  0  0  0  0
    2.7952   -0.7607    1.3424 H   0  0  0  0  0  0  0  0  0  0  0  0
    2.1840   -4.4049    1.1339 H   0  0  0  0  0  0  0  0  0  0  0  0
    3.0203   -3.3808   -0.1122 H   0  0  0  0  0  0  0  0  0  0  0  0
    3.3450   -3.1110    1.6533 H   0  0  0  0  0  0  0  0  0  0  0  0
    0.7094   -3.3883    2.7434 H   0  0  0  0  0  0  0  0  0  0  0  0
    1.5734   -1.8293    3.0671 H   0  0  0  0  0  0  0  0  0  0  0  0
   -0.1243   -1.8214    2.4204 H   0  0  0  0  0  0  0  0  0  0  0  0
   -0.0318   -3.8404    0.2682 H   0  0  0  0  0  0  0  0  0  0  0  0
   -0.5423   -2.1176    0.0268 H   0  0  0  0  0  0  0  0  0  0  0  0
    0.7302   -2.8451   -1.0468 H   0  0  0  0  0  0  0  0  0  0  0  0
    3.0350   -0.2707   -0.8716 H   0  0  0  0  0  0  0  0  0  0  0  0
    0.2863    1.7940    2.8907 H   0  0  0  0  0  0  0  0  0  0  0  0
    3.5900    3.8441    1.1520 H   0  0  0  0  0  0  0  0  0  0  0  0
  1  2  1  0  0  0  0
  1 18  1  0  0  0  0
  1 21  1  0  0  0  0
  2  3  1  0  0  0  0
  2 12  1  0  0  0  0
  2 22  1  0  0  0  0
  3  4  1  0  0  0  0
  3 23  1  0  0  0  0
  3 24  1  0  0  0  0
  4  5  2  0  0  0  0
  4 10  1  0  0  0  0
  5  6  1  0  0  0  0
  5 11  1  0  0  0  0
  6  7  2  0  0  0  0
  6 25  1  0  0  0  0
  7  8  1  0  0  0  0
  7  9  1  0  0  0  0
  9 10  2  0  0  0  0
  9 26  1  0  0  0  0
 10 27  1  0  0  0  0
 12 13  1  0  0  0  0
 12 17  1  0  0  0  0
 12 28  1  0  0  0  0
 13 14  1  0  0  0  0
 13 15  1  0  0  0  0
 13 16  1  0  0  0  0
 14 29  1  0  0  0  0
 14 30  1  0  0  0  0
 14 31  1  0  0  0  0
 15 32  1  0  0  0  0
 15 33  1  0  0  0  0
 15 34  1  0  0  0  0
 16 35  1  0  0  0  0
 16 36  1  0  0  0  0
 16 37  1  0  0  0  0
 17 38  1  0  0  0  0
 18 19  2  0  0  0  0
 18 39  1  0  0  0  0
 19 20  1  0  0  0  0
 20 21  2  0  0  0  0
 20 40  1  0  0  0  0
M  END
