./078150-00-2.hin
 OpenBabel10051109203D

 36 37  0  0  0  0  0  0  0  0999 V2000
    0.2336   -1.1684    1.7329 N   0  0  0  0  0  0  0  0  0  0  0  0
   -0.2053   -0.1008    1.0466 N   0  0  0  0  0  0  0  0  0  0  0  0
    0.7788    0.8394    1.0961 C   0  0  0  0  0  0  0  0  0  0  0  0
    0.7118    2.1892    0.4570 C   0  0  0  0  0  0  0  0  0  0  0  0
    1.6294    2.2831   -0.7140 C   0  0  0  0  0  0  0  0  0  0  0  0
    2.9853    2.5748   -0.5248 C   0  0  0  0  0  0  0  0  0  0  0  0
    3.8376    2.6858   -1.6220 C   0  0  0  0  0  0  0  0  0  0  0  0
    3.3436    2.5051   -2.9139 C   0  0  0  0  0  0  0  0  0  0  0  0
    1.9942    2.2103   -3.1066 C   0  0  0  0  0  0  0  0  0  0  0  0
    1.1385    2.0990   -2.0115 C   0  0  0  0  0  0  0  0  0  0  0  0
    1.9030    0.3895    1.8237 N   0  0  0  0  0  0  0  0  0  0  0  0
    1.5495   -0.8719    2.2232 C   0  0  0  0  0  0  0  0  0  0  0  0
    2.2994   -1.7134    3.0746 N   0  0  0  0  0  0  0  0  0  0  0  0
   -0.8311   -2.4677    1.7846 P   0  0  0  0  0  0  0  0  0  0  0  0
   -1.0173   -3.0692    0.4486 O   0  0  0  0  0  0  0  0  0  0  0  0
   -0.1521   -3.4756    2.8218 N   0  0  0  0  0  0  0  0  0  0  0  0
    0.2188   -4.7850    2.4099 C   0  0  0  0  0  0  0  0  0  0  0  0
   -2.1657   -1.9034    2.4423 N   0  0  0  0  0  0  0  0  0  0  0  0
   -3.3719   -1.8662    1.6873 C   0  0  0  0  0  0  0  0  0  0  0  0
   -0.3447    2.3994    0.1352 H   0  0  0  0  0  0  0  0  0  0  0  0
    0.9954    2.9601    1.2256 H   0  0  0  0  0  0  0  0  0  0  0  0
    3.3766    2.7056    0.4955 H   0  0  0  0  0  0  0  0  0  0  0  0
    4.9020    2.9148   -1.4670 H   0  0  0  0  0  0  0  0  0  0  0  0
    4.0172    2.5928   -3.7785 H   0  0  0  0  0  0  0  0  0  0  0  0
    1.6027    2.0622   -4.1236 H   0  0  0  0  0  0  0  0  0  0  0  0
    0.0756    1.8599   -2.1671 H   0  0  0  0  0  0  0  0  0  0  0  0
    3.1479   -1.2659    3.3665 H   0  0  0  0  0  0  0  0  0  0  0  0
    2.4870   -2.6063    2.6610 H   0  0  0  0  0  0  0  0  0  0  0  0
    0.0508   -3.2756    3.7675 H   0  0  0  0  0  0  0  0  0  0  0  0
    1.3281   -4.9538    2.5198 H   0  0  0  0  0  0  0  0  0  0  0  0
   -0.2933   -5.5740    3.0299 H   0  0  0  0  0  0  0  0  0  0  0  0
   -0.0655   -4.9317    1.3300 H   0  0  0  0  0  0  0  0  0  0  0  0
   -2.2323   -1.4795    3.3308 H   0  0  0  0  0  0  0  0  0  0  0  0
   -4.1914   -2.4446    2.2004 H   0  0  0  0  0  0  0  0  0  0  0  0
   -3.7481   -0.8128    1.5521 H   0  0  0  0  0  0  0  0  0  0  0  0
   -3.1885   -2.3185    0.6726 H   0  0  0  0  0  0  0  0  0  0  0  0
  1  2  1  0  0  0  0
  1 12  1  0  0  0  0
  1 14  1  0  0  0  0
  2  3  2  0  0  0  0
  3  4  1  0  0  0  0
  3 11  1  0  0  0  0
  4  5  1  0  0  0  0
  4 20  1  0  0  0  0
  4 21  1  0  0  0  0
  5  6  2  0  0  0  0
  5 10  1  0  0  0  0
  6  7  1  0  0  0  0
  6 22  1  0  0  0  0
  7  8  2  0  0  0  0
  7 23  1  0  0  0  0
  8  9  1  0  0  0  0
  8 24  1  0  0  0  0
  9 10  2  0  0  0  0
  9 25  1  0  0  0  0
 10 26  1  0  0  0  0
 11 12  2  0  0  0  0
 12 13  1  0  0  0  0
 13 27  1  0  0  0  0
 13 28  1  0  0  0  0
 14 15  2  0  0  0  0
 14 16  1  0  0  0  0
 14 18  1  0  0  0  0
 16 17  1  0  0  0  0
 16 29  1  0  0  0  0
 17 30  1  0  0  0  0
 17 31  1  0  0  0  0
 17 32  1  0  0  0  0
 18 19  1  0  0  0  0
 18 33  1  0  0  0  0
 19 34  1  0  0  0  0
 19 35  1  0  0  0  0
 19 36  1  0  0  0  0
M  END
