./078150-02-4.hin
 OpenBabel10051109203D

 41 41  0  0  0  0  0  0  0  0999 V2000
    1.0429   -0.9101   -0.0402 N   0  0  0  0  0  0  0  0  0  0  0  0
    0.7679    0.3922   -0.2415 N   0  0  0  0  0  0  0  0  0  0  0  0
    1.9597    1.0501   -0.2468 C   0  0  0  0  0  0  0  0  0  0  0  0
    2.1246    2.5218   -0.4372 C   0  0  0  0  0  0  0  0  0  0  0  0
    2.5306    3.1919    0.8610 C   0  0  0  0  0  0  0  0  0  0  0  0
    2.6816    4.6867    0.6700 C   0  0  0  0  0  0  0  0  0  0  0  0
    3.0839    5.3659    1.9536 C   0  0  0  0  0  0  0  0  0  0  0  0
    3.0554    0.1813   -0.0495 N   0  0  0  0  0  0  0  0  0  0  0  0
    2.4717   -1.0573    0.0901 C   0  0  0  0  0  0  0  0  0  0  0  0
    3.1401   -2.2333    0.4158 N   0  0  0  0  0  0  0  0  0  0  0  0
   -0.1632   -2.0331   -0.1379 P   0  0  0  0  0  0  0  0  0  0  0  0
   -1.0861   -1.6857   -1.3886 N   0  0  0  0  0  0  0  0  0  0  0  0
   -1.0267   -2.5100   -2.5549 C   0  0  0  0  0  0  0  0  0  0  0  0
   -1.9389   -0.5513   -1.4745 C   0  0  0  0  0  0  0  0  0  0  0  0
    0.5406   -3.3382   -0.3116 O   0  0  0  0  0  0  0  0  0  0  0  0
   -1.0137   -1.9982    1.2105 N   0  0  0  0  0  0  0  0  0  0  0  0
   -1.4920   -0.8335    1.8701 C   0  0  0  0  0  0  0  0  0  0  0  0
   -1.3039   -3.2362    1.8674 C   0  0  0  0  0  0  0  0  0  0  0  0
    2.9120    2.6980   -1.2189 H   0  0  0  0  0  0  0  0  0  0  0  0
    1.1655    2.9682   -0.8127 H   0  0  0  0  0  0  0  0  0  0  0  0
    1.7582    2.9894    1.6484 H   0  0  0  0  0  0  0  0  0  0  0  0
    3.4993    2.7575    1.2235 H   0  0  0  0  0  0  0  0  0  0  0  0
    3.4530    4.8867   -0.1202 H   0  0  0  0  0  0  0  0  0  0  0  0
    1.7129    5.1183    0.3028 H   0  0  0  0  0  0  0  0  0  0  0  0
    3.1908    6.4659    1.7935 H   0  0  0  0  0  0  0  0  0  0  0  0
    2.3156    5.1975    2.7466 H   0  0  0  0  0  0  0  0  0  0  0  0
    4.0597    4.9661    2.3217 H   0  0  0  0  0  0  0  0  0  0  0  0
    4.1060   -2.2312    0.1709 H   0  0  0  0  0  0  0  0  0  0  0  0
    2.6426   -3.0816    0.2110 H   0  0  0  0  0  0  0  0  0  0  0  0
   -0.6754   -1.9270   -3.4529 H   0  0  0  0  0  0  0  0  0  0  0  0
   -0.3220   -3.3675   -2.3717 H   0  0  0  0  0  0  0  0  0  0  0  0
   -2.0441   -2.9215   -2.8097 H   0  0  0  0  0  0  0  0  0  0  0  0
   -2.9946   -0.8561   -1.7248 H   0  0  0  0  0  0  0  0  0  0  0  0
   -1.9491   -0.0056   -0.4957 H   0  0  0  0  0  0  0  0  0  0  0  0
   -1.6013    0.1629   -2.2787 H   0  0  0  0  0  0  0  0  0  0  0  0
   -1.1402   -0.7995    2.9406 H   0  0  0  0  0  0  0  0  0  0  0  0
   -1.1311    0.0935    1.3569 H   0  0  0  0  0  0  0  0  0  0  0  0
   -2.6194   -0.8128    1.8960 H   0  0  0  0  0  0  0  0  0  0  0  0
   -0.9095   -3.2400    2.9229 H   0  0  0  0  0  0  0  0  0  0  0  0
   -2.4154   -3.4100    1.9327 H   0  0  0  0  0  0  0  0  0  0  0  0
   -0.8272   -4.0835    1.3015 H   0  0  0  0  0  0  0  0  0  0  0  0
  1  2  1  0  0  0  0
  1  9  1  0  0  0  0
  1 11  1  0  0  0  0
  2  3  2  0  0  0  0
  3  4  1  0  0  0  0
  3  8  1  0  0  0  0
  4  5  1  0  0  0  0
  4 19  1  0  0  0  0
  4 20  1  0  0  0  0
  5  6  1  0  0  0  0
  5 21  1  0  0  0  0
  5 22  1  0  0  0  0
  6  7  1  0  0  0  0
  6 23  1  0  0  0  0
  6 24  1  0  0  0  0
  7 25  1  0  0  0  0
  7 26  1  0  0  0  0
  7 27  1  0  0  0  0
  8  9  2  0  0  0  0
  9 10  1  0  0  0  0
 10 28  1  0  0  0  0
 10 29  1  0  0  0  0
 11 12  1  0  0  0  0
 11 15  2  0  0  0  0
 11 16  1  0  0  0  0
 12 13  1  0  0  0  0
 12 14  1  0  0  0  0
 13 30  1  0  0  0  0
 13 31  1  0  0  0  0
 13 32  1  0  0  0  0
 14 33  1  0  0  0  0
 14 34  1  0  0  0  0
 14 35  1  0  0  0  0
 16 17  1  0  0  0  0
 16 18  1  0  0  0  0
 17 36  1  0  0  0  0
 17 37  1  0  0  0  0
 17 38  1  0  0  0  0
 18 39  1  0  0  0  0
 18 40  1  0  0  0  0
 18 41  1  0  0  0  0
M  END
