./078218-53-8.hin
 OpenBabel10051109203D

 50 50  0  0  0  0  0  0  0  0999 V2000
    0.5203   -1.4853   -1.0226 N   0  0  0  0  0  0  0  0  0  0  0  0
    0.2765   -0.1621   -1.0657 N   0  0  0  0  0  0  0  0  0  0  0  0
    1.4693    0.4723   -0.9018 C   0  0  0  0  0  0  0  0  0  0  0  0
    1.6601    1.9525   -0.8778 C   0  0  0  0  0  0  0  0  0  0  0  0
    1.8618    2.4432    0.5430 C   0  0  0  0  0  0  0  0  0  0  0  0
    2.0481    3.9456    0.5701 C   0  0  0  0  0  0  0  0  0  0  0  0
    2.2477    4.4436    1.9856 C   0  0  0  0  0  0  0  0  0  0  0  0
    2.4362    5.9450    2.0187 C   0  0  0  0  0  0  0  0  0  0  0  0
    2.6342    6.4435    3.4344 C   0  0  0  0  0  0  0  0  0  0  0  0
    2.8236    7.9378    3.4736 C   0  0  0  0  0  0  0  0  0  0  0  0
    2.5342   -0.4405   -0.7319 N   0  0  0  0  0  0  0  0  0  0  0  0
    1.9299   -1.6686   -0.8119 C   0  0  0  0  0  0  0  0  0  0  0  0
    2.5999   -2.9061   -0.8206 N   0  0  0  0  0  0  0  0  0  0  0  0
   -0.8358   -2.4646   -1.0231 P   0  0  0  0  0  0  0  0  0  0  0  0
   -1.8449   -1.9261   -2.1317 N   0  0  0  0  0  0  0  0  0  0  0  0
   -3.2230   -1.7579   -1.7874 C   0  0  0  0  0  0  0  0  0  0  0  0
   -1.4684   -1.4723   -3.4251 C   0  0  0  0  0  0  0  0  0  0  0  0
   -0.2943   -3.9129   -1.4420 N   0  0  0  0  0  0  0  0  0  0  0  0
   -0.4221   -5.0050   -0.5314 C   0  0  0  0  0  0  0  0  0  0  0  0
    0.2869   -4.2127   -2.7038 C   0  0  0  0  0  0  0  0  0  0  0  0
   -1.4290   -2.4978    0.3339 O   0  0  0  0  0  0  0  0  0  0  0  0
    2.5554    2.2143   -1.5033 H   0  0  0  0  0  0  0  0  0  0  0  0
    0.7660    2.4578   -1.3315 H   0  0  0  0  0  0  0  0  0  0  0  0
    0.9744    2.1611    1.1685 H   0  0  0  0  0  0  0  0  0  0  0  0
    2.7602    1.9427    0.9910 H   0  0  0  0  0  0  0  0  0  0  0  0
    2.9351    4.2273   -0.0566 H   0  0  0  0  0  0  0  0  0  0  0  0
    1.1509    4.4458    0.1186 H   0  0  0  0  0  0  0  0  0  0  0  0
    1.3603    4.1617    2.6116 H   0  0  0  0  0  0  0  0  0  0  0  0
    3.1437    3.9417    2.4375 H   0  0  0  0  0  0  0  0  0  0  0  0
    3.3242    6.2270    1.3937 H   0  0  0  0  0  0  0  0  0  0  0  0
    1.5408    6.4470    1.5659 H   0  0  0  0  0  0  0  0  0  0  0  0
    1.7454    6.1597    4.0579 H   0  0  0  0  0  0  0  0  0  0  0  0
    3.5285    5.9383    3.8864 H   0  0  0  0  0  0  0  0  0  0  0  0
    2.9674    8.2836    4.5257 H   0  0  0  0  0  0  0  0  0  0  0  0
    3.7198    8.2377    2.8783 H   0  0  0  0  0  0  0  0  0  0  0  0
    1.9318    8.4597    3.0497 H   0  0  0  0  0  0  0  0  0  0  0  0
    3.5820   -2.7947   -0.6574 H   0  0  0  0  0  0  0  0  0  0  0  0
    2.1979   -3.5904   -0.2127 H   0  0  0  0  0  0  0  0  0  0  0  0
   -3.5530   -0.6889   -1.9212 H   0  0  0  0  0  0  0  0  0  0  0  0
   -3.8824   -2.3907   -2.4462 H   0  0  0  0  0  0  0  0  0  0  0  0
   -3.3777   -2.0514   -0.7121 H   0  0  0  0  0  0  0  0  0  0  0  0
   -1.8987   -2.1320   -4.2318 H   0  0  0  0  0  0  0  0  0  0  0  0
   -1.8421   -0.4268   -3.6190 H   0  0  0  0  0  0  0  0  0  0  0  0
   -0.3520   -1.4639   -3.5260 H   0  0  0  0  0  0  0  0  0  0  0  0
   -1.0193   -5.8463   -0.9835 H   0  0  0  0  0  0  0  0  0  0  0  0
    0.5867   -5.4302   -0.2621 H   0  0  0  0  0  0  0  0  0  0  0  0
   -0.9359   -4.6529    0.4062 H   0  0  0  0  0  0  0  0  0  0  0  0
    1.2747   -4.7412   -2.5845 H   0  0  0  0  0  0  0  0  0  0  0  0
   -0.3747   -4.8862   -3.3201 H   0  0  0  0  0  0  0  0  0  0  0  0
    0.4641   -3.2621   -3.2712 H   0  0  0  0  0  0  0  0  0  0  0  0
  1  2  1  0  0  0  0
  1 12  1  0  0  0  0
  1 14  1  0  0  0  0
  2  3  2  0  0  0  0
  3  4  1  0  0  0  0
  3 11  1  0  0  0  0
  4  5  1  0  0  0  0
  4 22  1  0  0  0  0
  4 23  1  0  0  0  0
  5  6  1  0  0  0  0
  5 24  1  0  0  0  0
  5 25  1  0  0  0  0
  6  7  1  0  0  0  0
  6 26  1  0  0  0  0
  6 27  1  0  0  0  0
  7  8  1  0  0  0  0
  7 28  1  0  0  0  0
  7 29  1  0  0  0  0
  8  9  1  0  0  0  0
  8 30  1  0  0  0  0
  8 31  1  0  0  0  0
  9 10  1  0  0  0  0
  9 32  1  0  0  0  0
  9 33  1  0  0  0  0
 10 34  1  0  0  0  0
 10 35  1  0  0  0  0
 10 36  1  0  0  0  0
 11 12  2  0  0  0  0
 12 13  1  0  0  0  0
 13 37  1  0  0  0  0
 13 38  1  0  0  0  0
 14 15  1  0  0  0  0
 14 18  1  0  0  0  0
 14 21  2  0  0  0  0
 15 16  1  0  0  0  0
 15 17  1  0  0  0  0
 16 39  1  0  0  0  0
 16 40  1  0  0  0  0
 16 41  1  0  0  0  0
 17 42  1  0  0  0  0
 17 43  1  0  0  0  0
 17 44  1  0  0  0  0
 18 19  1  0  0  0  0
 18 20  1  0  0  0  0
 19 45  1  0  0  0  0
 19 46  1  0  0  0  0
 19 47  1  0  0  0  0
 20 48  1  0  0  0  0
 20 49  1  0  0  0  0
 20 50  1  0  0  0  0
M  END
