./078218-58-3.hin
 OpenBabel10051109203D

 33 34  0  0  0  0  0  0  0  0999 V2000
   -0.6299   -0.8024    0.0739 N   0  0  0  0  0  0  0  0  0  0  0  0
   -0.5690    0.5356   -0.0494 N   0  0  0  0  0  0  0  0  0  0  0  0
    0.7472    0.8812    0.0752 C   0  0  0  0  0  0  0  0  0  0  0  0
    1.2650    2.2487   -0.0024 C   0  0  0  0  0  0  0  0  0  0  0  0
    2.6460    2.4859    0.0662 C   0  0  0  0  0  0  0  0  0  0  0  0
    3.1343    3.7894   -0.0097 C   0  0  0  0  0  0  0  0  0  0  0  0
    2.2568    4.8635   -0.1534 C   0  0  0  0  0  0  0  0  0  0  0  0
    0.8835    4.6317   -0.2209 C   0  0  0  0  0  0  0  0  0  0  0  0
    0.3856    3.3321   -0.1458 C   0  0  0  0  0  0  0  0  0  0  0  0
    1.5759   -0.2460    0.2920 N   0  0  0  0  0  0  0  0  0  0  0  0
    0.6969   -1.3051    0.3052 C   0  0  0  0  0  0  0  0  0  0  0  0
    1.0192   -2.6228    0.6005 N   0  0  0  0  0  0  0  0  0  0  0  0
   -2.1061   -1.5326   -0.1059 P   0  0  0  0  0  0  0  0  0  0  0  0
   -2.7137   -1.0159   -1.4824 N   0  0  0  0  0  0  0  0  0  0  0  0
   -3.0255   -1.9335   -2.5230 C   0  0  0  0  0  0  0  0  0  0  0  0
   -1.8535   -2.9986   -0.0784 O   0  0  0  0  0  0  0  0  0  0  0  0
   -3.0223   -1.0068    1.0827 N   0  0  0  0  0  0  0  0  0  0  0  0
   -3.5406   -1.9132    2.0484 C   0  0  0  0  0  0  0  0  0  0  0  0
    3.3520    1.6486    0.1810 H   0  0  0  0  0  0  0  0  0  0  0  0
    4.2183    3.9683    0.0450 H   0  0  0  0  0  0  0  0  0  0  0  0
    2.6464    5.8902   -0.2130 H   0  0  0  0  0  0  0  0  0  0  0  0
    0.1880    5.4762   -0.3332 H   0  0  0  0  0  0  0  0  0  0  0  0
   -0.7010    3.1676   -0.1993 H   0  0  0  0  0  0  0  0  0  0  0  0
    1.9658   -2.8704    0.4203 H   0  0  0  0  0  0  0  0  0  0  0  0
    0.3264   -3.3117    0.3771 H   0  0  0  0  0  0  0  0  0  0  0  0
   -2.8539   -0.0672   -1.7201 H   0  0  0  0  0  0  0  0  0  0  0  0
   -2.4375   -1.7168   -3.4595 H   0  0  0  0  0  0  0  0  0  0  0  0
   -2.7875   -2.9792   -2.1807 H   0  0  0  0  0  0  0  0  0  0  0  0
   -4.1158   -1.8821   -2.8030 H   0  0  0  0  0  0  0  0  0  0  0  0
   -3.2313   -0.0579    1.2605 H   0  0  0  0  0  0  0  0  0  0  0  0
   -3.1820   -1.6657    3.0875 H   0  0  0  0  0  0  0  0  0  0  0  0
   -4.6668   -1.8842    2.0757 H   0  0  0  0  0  0  0  0  0  0  0  0
   -3.2107   -2.9584    1.7914 H   0  0  0  0  0  0  0  0  0  0  0  0
  1  2  1  0  0  0  0
  1 11  1  0  0  0  0
  1 13  1  0  0  0  0
  2  3  2  0  0  0  0
  3  4  1  0  0  0  0
  3 10  1  0  0  0  0
  4  5  2  0  0  0  0
  4  9  1  0  0  0  0
  5  6  1  0  0  0  0
  5 19  1  0  0  0  0
  6  7  2  0  0  0  0
  6 20  1  0  0  0  0
  7  8  1  0  0  0  0
  7 21  1  0  0  0  0
  8  9  2  0  0  0  0
  8 22  1  0  0  0  0
  9 23  1  0  0  0  0
 10 11  2  0  0  0  0
 11 12  1  0  0  0  0
 12 24  1  0  0  0  0
 12 25  1  0  0  0  0
 13 14  1  0  0  0  0
 13 16  2  0  0  0  0
 13 17  1  0  0  0  0
 14 15  1  0  0  0  0
 14 26  1  0  0  0  0
 15 27  1  0  0  0  0
 15 28  1  0  0  0  0
 15 29  1  0  0  0  0
 17 18  1  0  0  0  0
 17 30  1  0  0  0  0
 18 31  1  0  0  0  0
 18 32  1  0  0  0  0
 18 33  1  0  0  0  0
M  END
