./078218-59-4.hin
 OpenBabel10051109203D

 38 38  0  0  0  0  0  0  0  0999 V2000
    0.9317   -0.5963   -0.1398 N   0  0  0  0  0  0  0  0  0  0  0  0
    0.7153    0.7268   -0.0179 N   0  0  0  0  0  0  0  0  0  0  0  0
    1.9277    1.3360   -0.1289 C   0  0  0  0  0  0  0  0  0  0  0  0
    2.9784    0.4127   -0.3244 N   0  0  0  0  0  0  0  0  0  0  0  0
    2.3442   -0.8086   -0.3394 C   0  0  0  0  0  0  0  0  0  0  0  0
    2.9498   -2.0305   -0.6158 N   0  0  0  0  0  0  0  0  0  0  0  0
    2.1556    2.8097   -0.0566 C   0  0  0  0  0  0  0  0  0  0  0  0
    2.8906    3.1846    1.2159 C   0  0  0  0  0  0  0  0  0  0  0  0
    3.1058    4.6743    1.2946 C   0  0  0  0  0  0  0  0  0  0  0  0
   -0.3032   -1.6619    0.1149 P   0  0  0  0  0  0  0  0  0  0  0  0
   -1.2269   -1.7046   -1.1842 N   0  0  0  0  0  0  0  0  0  0  0  0
   -1.6060   -2.9802   -1.7109 C   0  0  0  0  0  0  0  0  0  0  0  0
   -1.6916   -0.5805   -1.9195 C   0  0  0  0  0  0  0  0  0  0  0  0
    0.3659   -2.9740    0.3583 O   0  0  0  0  0  0  0  0  0  0  0  0
   -1.1427   -1.1796    1.3797 N   0  0  0  0  0  0  0  0  0  0  0  0
   -1.9580   -0.0152    1.4120 C   0  0  0  0  0  0  0  0  0  0  0  0
   -1.0364   -1.9007    2.6092 C   0  0  0  0  0  0  0  0  0  0  0  0
    3.9288   -2.0480   -0.4307 H   0  0  0  0  0  0  0  0  0  0  0  0
    2.4376   -2.8412   -0.3165 H   0  0  0  0  0  0  0  0  0  0  0  0
    2.7593    3.1239   -0.9506 H   0  0  0  0  0  0  0  0  0  0  0  0
    1.1732    3.3512   -0.1011 H   0  0  0  0  0  0  0  0  0  0  0  0
    2.3000    2.8404    2.1052 H   0  0  0  0  0  0  0  0  0  0  0  0
    3.8800    2.6564    1.2474 H   0  0  0  0  0  0  0  0  0  0  0  0
    3.6487    4.9355    2.2349 H   0  0  0  0  0  0  0  0  0  0  0  0
    3.7113    5.0323    0.4269 H   0  0  0  0  0  0  0  0  0  0  0  0
    2.1297    5.2171    1.2886 H   0  0  0  0  0  0  0  0  0  0  0  0
   -1.2749   -3.0941   -2.7819 H   0  0  0  0  0  0  0  0  0  0  0  0
   -1.1319   -3.7961   -1.0986 H   0  0  0  0  0  0  0  0  0  0  0  0
   -2.7256   -3.1077   -1.6991 H   0  0  0  0  0  0  0  0  0  0  0  0
   -2.8172   -0.5144   -1.8962 H   0  0  0  0  0  0  0  0  0  0  0  0
   -1.2711    0.3702   -1.5043 H   0  0  0  0  0  0  0  0  0  0  0  0
   -1.3912   -0.6516   -3.0038 H   0  0  0  0  0  0  0  0  0  0  0  0
   -3.0070   -0.2641    1.7403 H   0  0  0  0  0  0  0  0  0  0  0  0
   -1.5585    0.7524    2.1343 H   0  0  0  0  0  0  0  0  0  0  0  0
   -2.0048    0.4469    0.3921 H   0  0  0  0  0  0  0  0  0  0  0  0
   -2.0475   -2.2555    2.9571 H   0  0  0  0  0  0  0  0  0  0  0  0
   -0.3673   -2.7932    2.4627 H   0  0  0  0  0  0  0  0  0  0  0  0
   -0.6164   -1.2534    3.4306 H   0  0  0  0  0  0  0  0  0  0  0  0
  1  2  1  0  0  0  0
  1  5  1  0  0  0  0
  1 10  1  0  0  0  0
  2  3  2  0  0  0  0
  3  4  1  0  0  0  0
  3  7  1  0  0  0  0
  4  5  2  0  0  0  0
  5  6  1  0  0  0  0
  6 18  1  0  0  0  0
  6 19  1  0  0  0  0
  7  8  1  0  0  0  0
  7 20  1  0  0  0  0
  7 21  1  0  0  0  0
  8  9  1  0  0  0  0
  8 22  1  0  0  0  0
  8 23  1  0  0  0  0
  9 24  1  0  0  0  0
  9 25  1  0  0  0  0
  9 26  1  0  0  0  0
 10 11  1  0  0  0  0
 10 14  2  0  0  0  0
 10 15  1  0  0  0  0
 11 12  1  0  0  0  0
 11 13  1  0  0  0  0
 12 27  1  0  0  0  0
 12 28  1  0  0  0  0
 12 29  1  0  0  0  0
 13 30  1  0  0  0  0
 13 31  1  0  0  0  0
 13 32  1  0  0  0  0
 15 16  1  0  0  0  0
 15 17  1  0  0  0  0
 16 33  1  0  0  0  0
 16 34  1  0  0  0  0
 16 35  1  0  0  0  0
 17 36  1  0  0  0  0
 17 37  1  0  0  0  0
 17 38  1  0  0  0  0
M  END
