./078218-66-3.hin
 OpenBabel10051109203D

 29 29  0  0  0  0  0  0  0  0999 V2000
   -0.5519   -0.6065    0.8083 N   0  0  0  0  0  0  0  0  0  0  0  0
    0.1478    0.2543   -0.3736 P   0  0  0  0  0  0  0  0  0  0  0  0
   -1.4750   -1.7295    0.8731 C   0  0  0  0  0  0  0  0  0  0  0  0
   -1.8069   -1.9399    2.2003 N   0  0  0  0  0  0  0  0  0  0  0  0
   -1.0790   -0.9653    2.8890 C   0  0  0  0  0  0  0  0  0  0  0  0
   -0.3375   -0.1753    2.0840 N   0  0  0  0  0  0  0  0  0  0  0  0
   -1.8756   -2.5157   -0.1775 N   0  0  0  0  0  0  0  0  0  0  0  0
   -0.8445   -0.2733   -1.9443 S   0  0  0  0  0  0  0  0  0  0  0  0
   -0.0169    1.7954   -0.1142 N   0  0  0  0  0  0  0  0  0  0  0  0
    1.6597   -0.1501   -0.5383 N   0  0  0  0  0  0  0  0  0  0  0  0
   -1.0328    2.5717   -0.7640 C   0  0  0  0  0  0  0  0  0  0  0  0
    0.7628    2.5103    0.8467 C   0  0  0  0  0  0  0  0  0  0  0  0
    2.5605   -0.4058    0.5399 C   0  0  0  0  0  0  0  0  0  0  0  0
    2.2363   -0.3143   -1.8438 C   0  0  0  0  0  0  0  0  0  0  0  0
   -1.1226   -0.8661    3.9809 H   0  0  0  0  0  0  0  0  0  0  0  0
   -1.7982   -2.1532   -1.1180 H   0  0  0  0  0  0  0  0  0  0  0  0
   -2.6296   -3.1363    0.0160 H   0  0  0  0  0  0  0  0  0  0  0  0
   -0.5750    3.4493   -1.3004 H   0  0  0  0  0  0  0  0  0  0  0  0
   -1.5787    1.9299   -1.5152 H   0  0  0  0  0  0  0  0  0  0  0  0
   -1.7668    2.9836   -0.0156 H   0  0  0  0  0  0  0  0  0  0  0  0
    0.1122    2.9536    1.6531 H   0  0  0  0  0  0  0  0  0  0  0  0
    1.5061    1.8228    1.3286 H   0  0  0  0  0  0  0  0  0  0  0  0
    1.3186    3.3615    0.3609 H   0  0  0  0  0  0  0  0  0  0  0  0
    3.4845    0.2334    0.4470 H   0  0  0  0  0  0  0  0  0  0  0  0
    2.0802   -0.1862    1.5268 H   0  0  0  0  0  0  0  0  0  0  0  0
    2.9021   -1.4801    0.5380 H   0  0  0  0  0  0  0  0  0  0  0  0
    2.7021   -1.3340   -1.9484 H   0  0  0  0  0  0  0  0  0  0  0  0
    1.4355   -0.2048   -2.6314 H   0  0  0  0  0  0  0  0  0  0  0  0
    3.0503    0.4442   -2.0189 H   0  0  0  0  0  0  0  0  0  0  0  0
  1  2  1  0  0  0  0
  1  3  1  0  0  0  0
  1  6  1  0  0  0  0
  2  8  2  0  0  0  0
  2  9  1  0  0  0  0
  2 10  1  0  0  0  0
  3  4  2  0  0  0  0
  3  7  1  0  0  0  0
  4  5  1  0  0  0  0
  5  6  2  0  0  0  0
  5 15  1  0  0  0  0
  7 16  1  0  0  0  0
  7 17  1  0  0  0  0
  9 11  1  0  0  0  0
  9 12  1  0  0  0  0
 10 13  1  0  0  0  0
 10 14  1  0  0  0  0
 11 18  1  0  0  0  0
 11 19  1  0  0  0  0
 11 20  1  0  0  0  0
 12 21  1  0  0  0  0
 12 22  1  0  0  0  0
 12 23  1  0  0  0  0
 13 24  1  0  0  0  0
 13 25  1  0  0  0  0
 13 26  1  0  0  0  0
 14 27  1  0  0  0  0
 14 28  1  0  0  0  0
 14 29  1  0  0  0  0
M  END
