./078371-73-0.hin
 OpenBabel10051109203D

 47 47  0  0  0  0  0  0  0  0999 V2000
   -1.5480   -1.8939   -0.5680 N   0  0  0  0  0  0  0  0  0  0  0  0
   -1.2812   -0.9292    0.3249 N   0  0  0  0  0  0  0  0  0  0  0  0
   -0.3180   -0.1465   -0.2341 C   0  0  0  0  0  0  0  0  0  0  0  0
    0.0734   -0.5741   -1.5156 N   0  0  0  0  0  0  0  0  0  0  0  0
   -0.7051   -1.6961   -1.7242 C   0  0  0  0  0  0  0  0  0  0  0  0
   -0.6113   -2.5479   -2.8148 N   0  0  0  0  0  0  0  0  0  0  0  0
    0.2827    1.0224    0.4483 C   0  0  0  0  0  0  0  0  0  0  0  0
    0.8305    1.0327    1.5489 O   0  0  0  0  0  0  0  0  0  0  0  0
    0.1579    2.1728   -0.2706 O   0  0  0  0  0  0  0  0  0  0  0  0
    0.7443    3.3625    0.2818 C   0  0  0  0  0  0  0  0  0  0  0  0
    2.2378    3.3943    0.0235 C   0  0  0  0  0  0  0  0  0  0  0  0
    2.8289    4.7060    0.4900 C   0  0  0  0  0  0  0  0  0  0  0  0
    4.3223    4.7497    0.2446 C   0  0  0  0  0  0  0  0  0  0  0  0
    4.9209    6.0497    0.7161 C   0  0  0  0  0  0  0  0  0  0  0  0
   -2.7825   -2.9681   -0.2830 P   0  0  0  0  0  0  0  0  0  0  0  0
   -3.0551   -3.5784   -1.6168 O   0  0  0  0  0  0  0  0  0  0  0  0
   -2.2854   -4.0482    0.7751 N   0  0  0  0  0  0  0  0  0  0  0  0
   -1.6088   -3.7802    1.9971 C   0  0  0  0  0  0  0  0  0  0  0  0
   -2.4864   -5.4353    0.4808 C   0  0  0  0  0  0  0  0  0  0  0  0
   -4.0323   -2.1586    0.2746 N   0  0  0  0  0  0  0  0  0  0  0  0
   -5.1716   -1.9608   -0.5671 C   0  0  0  0  0  0  0  0  0  0  0  0
   -4.0928   -1.5365    1.5525 C   0  0  0  0  0  0  0  0  0  0  0  0
   -0.2098   -2.1353   -3.6277 H   0  0  0  0  0  0  0  0  0  0  0  0
   -1.3970   -3.1544   -2.9674 H   0  0  0  0  0  0  0  0  0  0  0  0
    0.2105    4.1790   -0.2750 H   0  0  0  0  0  0  0  0  0  0  0  0
    0.5215    3.4250    1.3785 H   0  0  0  0  0  0  0  0  0  0  0  0
    2.7208    2.5382    0.5654 H   0  0  0  0  0  0  0  0  0  0  0  0
    2.4313    3.2506   -1.0716 H   0  0  0  0  0  0  0  0  0  0  0  0
    2.3350    5.5570   -0.0494 H   0  0  0  0  0  0  0  0  0  0  0  0
    2.6248    4.8433    1.5849 H   0  0  0  0  0  0  0  0  0  0  0  0
    4.8130    3.8928    0.7778 H   0  0  0  0  0  0  0  0  0  0  0  0
    4.5247    4.6161   -0.8510 H   0  0  0  0  0  0  0  0  0  0  0  0
    6.0210    6.0617    0.5246 H   0  0  0  0  0  0  0  0  0  0  0  0
    4.4601    6.9143    0.1799 H   0  0  0  0  0  0  0  0  0  0  0  0
    4.7523    6.1873    1.8116 H   0  0  0  0  0  0  0  0  0  0  0  0
   -0.6401   -4.3537    2.0578 H   0  0  0  0  0  0  0  0  0  0  0  0
   -1.3716   -2.6905    2.0942 H   0  0  0  0  0  0  0  0  0  0  0  0
   -2.2302   -4.0928    2.8847 H   0  0  0  0  0  0  0  0  0  0  0  0
   -3.1370   -5.9241    1.2601 H   0  0  0  0  0  0  0  0  0  0  0  0
   -2.9718   -5.5404   -0.5285 H   0  0  0  0  0  0  0  0  0  0  0  0
   -1.5088   -5.9955    0.4717 H   0  0  0  0  0  0  0  0  0  0  0  0
   -5.3511   -0.8661   -0.7645 H   0  0  0  0  0  0  0  0  0  0  0  0
   -5.0113   -2.4920   -1.5457 H   0  0  0  0  0  0  0  0  0  0  0  0
   -6.1051   -2.3634   -0.0816 H   0  0  0  0  0  0  0  0  0  0  0  0
   -4.9981   -1.8816    2.1279 H   0  0  0  0  0  0  0  0  0  0  0  0
   -3.1766   -1.7897    2.1459 H   0  0  0  0  0  0  0  0  0  0  0  0
   -4.1638   -0.4149    1.4649 H   0  0  0  0  0  0  0  0  0  0  0  0
  1  2  1  0  0  0  0
  1  5  1  0  0  0  0
  1 15  1  0  0  0  0
  2  3  2  0  0  0  0
  3  4  1  0  0  0  0
  3  7  1  0  0  0  0
  4  5  2  0  0  0  0
  5  6  1  0  0  0  0
  6 23  1  0  0  0  0
  6 24  1  0  0  0  0
  7  8  2  0  0  0  0
  7  9  1  0  0  0  0
  9 10  1  0  0  0  0
 10 11  1  0  0  0  0
 10 25  1  0  0  0  0
 10 26  1  0  0  0  0
 11 12  1  0  0  0  0
 11 27  1  0  0  0  0
 11 28  1  0  0  0  0
 12 13  1  0  0  0  0
 12 29  1  0  0  0  0
 12 30  1  0  0  0  0
 13 14  1  0  0  0  0
 13 31  1  0  0  0  0
 13 32  1  0  0  0  0
 14 33  1  0  0  0  0
 14 34  1  0  0  0  0
 14 35  1  0  0  0  0
 15 16  2  0  0  0  0
 15 17  1  0  0  0  0
 15 20  1  0  0  0  0
 17 18  1  0  0  0  0
 17 19  1  0  0  0  0
 18 36  1  0  0  0  0
 18 37  1  0  0  0  0
 18 38  1  0  0  0  0
 19 39  1  0  0  0  0
 19 40  1  0  0  0  0
 19 41  1  0  0  0  0
 20 21  1  0  0  0  0
 20 22  1  0  0  0  0
 21 42  1  0  0  0  0
 21 43  1  0  0  0  0
 21 44  1  0  0  0  0
 22 45  1  0  0  0  0
 22 46  1  0  0  0  0
 22 47  1  0  0  0  0
M  END
