./080584-90-3.hin
 OpenBabel10051109203D

 70 71  0  0  0  0  0  0  0  0999 V2000
    0.5068   -5.6572    3.3686 C   0  0  0  0  0  0  0  0  0  0  0  0
   -0.5134   -4.8609    2.5968 C   0  0  0  0  0  0  0  0  0  0  0  0
   -0.4062   -3.3811    2.9014 C   0  0  0  0  0  0  0  0  0  0  0  0
   -1.4055   -2.5834    2.0904 C   0  0  0  0  0  0  0  0  0  0  0  0
   -1.3724   -1.1026    2.4292 C   0  0  0  0  0  0  0  0  0  0  0  0
   -2.5520   -0.3764    1.7946 C   0  0  0  0  0  0  0  0  0  0  0  0
   -2.9891    0.8164    2.6082 C   0  0  0  0  0  0  0  0  0  0  0  0
   -0.0354   -0.4058    2.1143 C   0  0  0  0  0  0  0  0  0  0  0  0
    0.6986   -0.9014    0.9624 N   0  0  0  0  0  0  0  0  0  0  0  0
    2.1430   -0.8877    1.1348 C   0  0  0  0  0  0  0  0  0  0  0  0
    2.9308   -1.8367    0.2117 C   0  0  0  0  0  0  0  0  0  0  0  0
    2.7503   -1.5462   -0.8607 H   0  0  0  0  0  0  0  0  0  0  0  0
    4.4191   -1.6670    0.5132 C   0  0  0  0  0  0  0  0  0  0  0  0
    5.2457   -1.5638   -0.7522 C   0  0  0  0  0  0  0  0  0  0  0  0
    6.7235   -1.4706   -0.4353 C   0  0  0  0  0  0  0  0  0  0  0  0
    7.5508   -1.3551   -1.6894 C   0  0  0  0  0  0  0  0  0  0  0  0
    0.1977   -0.5353   -0.3322 C   0  0  0  0  0  0  0  0  0  0  0  0
    0.1628    0.8868   -0.7212 N   0  0  0  0  0  0  0  0  0  0  0  0
   -0.9578    1.5604   -1.2462 C   0  0  0  0  0  0  0  0  0  0  0  0
   -2.2503    1.1858   -1.6302 C   0  0  0  0  0  0  0  0  0  0  0  0
   -3.0665    2.1841   -2.1421 C   0  0  0  0  0  0  0  0  0  0  0  0
   -2.6309    3.5141   -2.2797 C   0  0  0  0  0  0  0  0  0  0  0  0
   -1.3489    3.9159   -1.9123 C   0  0  0  0  0  0  0  0  0  0  0  0
   -0.5003    2.9286   -1.3891 C   0  0  0  0  0  0  0  0  0  0  0  0
    0.8466    2.9456   -0.9219 N   0  0  0  0  0  0  0  0  0  0  0  0
    1.1695    1.7819   -0.5522 N   0  0  0  0  0  0  0  0  0  0  0  0
   -0.8880    5.3119   -2.0614 C   0  0  0  0  0  0  0  0  0  0  0  0
    0.4084   -6.7450    3.1361 H   0  0  0  0  0  0  0  0  0  0  0  0
    1.5418   -5.3311    3.1020 H   0  0  0  0  0  0  0  0  0  0  0  0
    0.3678   -5.5173    4.4679 H   0  0  0  0  0  0  0  0  0  0  0  0
   -0.3633   -5.0244    1.4964 H   0  0  0  0  0  0  0  0  0  0  0  0
   -1.5452   -5.2230    2.8481 H   0  0  0  0  0  0  0  0  0  0  0  0
   -0.5839   -3.2096    3.9958 H   0  0  0  0  0  0  0  0  0  0  0  0
    0.6359   -3.0308    2.6730 H   0  0  0  0  0  0  0  0  0  0  0  0
   -1.2147   -2.7382    0.9966 H   0  0  0  0  0  0  0  0  0  0  0  0
   -2.4372   -2.9771    2.3011 H   0  0  0  0  0  0  0  0  0  0  0  0
   -1.4913   -1.0168    3.5506 H   0  0  0  0  0  0  0  0  0  0  0  0
   -2.2882   -0.0368    0.7581 H   0  0  0  0  0  0  0  0  0  0  0  0
   -3.4178   -1.0847    1.6967 H   0  0  0  0  0  0  0  0  0  0  0  0
   -3.8356    1.3390    2.1003 H   0  0  0  0  0  0  0  0  0  0  0  0
   -3.3300    0.4994    3.6237 H   0  0  0  0  0  0  0  0  0  0  0  0
   -2.1512    1.5445    2.7317 H   0  0  0  0  0  0  0  0  0  0  0  0
   -0.2356    0.7019    2.0212 H   0  0  0  0  0  0  0  0  0  0  0  0
    0.6165   -0.5436    3.0263 H   0  0  0  0  0  0  0  0  0  0  0  0
    2.5595    0.1530    1.0036 H   0  0  0  0  0  0  0  0  0  0  0  0
    2.3616   -1.2110    2.1945 H   0  0  0  0  0  0  0  0  0  0  0  0
    2.4787   -3.2766    0.4052 C   0  0  0  0  0  0  0  0  0  0  0  0
    4.5906   -0.7422    1.1268 H   0  0  0  0  0  0  0  0  0  0  0  0
    4.7819   -2.5332    1.1273 H   0  0  0  0  0  0  0  0  0  0  0  0
    5.0557   -2.4590   -1.4020 H   0  0  0  0  0  0  0  0  0  0  0  0
    4.9303   -0.6582   -1.3349 H   0  0  0  0  0  0  0  0  0  0  0  0
    6.9091   -0.5801    0.2218 H   0  0  0  0  0  0  0  0  0  0  0  0
    7.0402   -2.3788    0.1428 H   0  0  0  0  0  0  0  0  0  0  0  0
    8.6359   -1.2888   -1.4340 H   0  0  0  0  0  0  0  0  0  0  0  0
    7.3969   -2.2447   -2.3469 H   0  0  0  0  0  0  0  0  0  0  0  0
    7.2676   -0.4412   -2.2657 H   0  0  0  0  0  0  0  0  0  0  0  0
    0.8218   -1.0633   -1.1163 H   0  0  0  0  0  0  0  0  0  0  0  0
   -0.8753   -0.8919   -0.4029 H   0  0  0  0  0  0  0  0  0  0  0  0
   -2.6021    0.1504   -1.5341 H   0  0  0  0  0  0  0  0  0  0  0  0
   -4.0919    1.9301   -2.4537 H   0  0  0  0  0  0  0  0  0  0  0  0
   -3.3288    4.2581   -2.6936 H   0  0  0  0  0  0  0  0  0  0  0  0
   -1.6877    5.9592   -2.4972 H   0  0  0  0  0  0  0  0  0  0  0  0
   -0.5935    5.7281   -1.0650 H   0  0  0  0  0  0  0  0  0  0  0  0
    0.0090    5.3516   -2.7298 H   0  0  0  0  0  0  0  0  0  0  0  0
    3.1456   -4.2303   -0.5525 C   0  0  0  0  0  0  0  0  0  0  0  0
    2.6897   -3.5935    1.4617 H   0  0  0  0  0  0  0  0  0  0  0  0
    1.3659   -3.3394    0.2642 H   0  0  0  0  0  0  0  0  0  0  0  0
    2.7198   -5.2560   -0.4318 H   0  0  0  0  0  0  0  0  0  0  0  0
    2.9888   -3.9052   -1.6096 H   0  0  0  0  0  0  0  0  0  0  0  0
    4.2453   -4.2825   -0.3623 H   0  0  0  0  0  0  0  0  0  0  0  0
  1  2  1  0  0  0  0
  1 28  1  0  0  0  0
  1 29  1  0  0  0  0
  1 30  1  0  0  0  0
  2  3  1  0  0  0  0
  2 31  1  0  0  0  0
  2 32  1  0  0  0  0
  3  4  1  0  0  0  0
  3 33  1  0  0  0  0
  3 34  1  0  0  0  0
  4  5  1  0  0  0  0
  4 35  1  0  0  0  0
  4 36  1  0  0  0  0
  5  6  1  0  0  0  0
  5  8  1  0  0  0  0
  5 37  1  0  0  0  0
  6  7  1  0  0  0  0
  6 38  1  0  0  0  0
  6 39  1  0  0  0  0
  7 40  1  0  0  0  0
  7 41  1  0  0  0  0
  7 42  1  0  0  0  0
  8  9  1  0  0  0  0
  8 43  1  0  0  0  0
  8 44  1  0  0  0  0
  9 10  1  0  0  0  0
  9 17  1  0  0  0  0
 10 11  1  0  0  0  0
 10 45  1  0  0  0  0
 10 46  1  0  0  0  0
 11 12  1  0  0  0  0
 11 13  1  0  0  0  0
 11 47  1  0  0  0  0
 13 14  1  0  0  0  0
 13 48  1  0  0  0  0
 13 49  1  0  0  0  0
 14 15  1  0  0  0  0
 14 50  1  0  0  0  0
 14 51  1  0  0  0  0
 15 16  1  0  0  0  0
 15 52  1  0  0  0  0
 15 53  1  0  0  0  0
 16 54  1  0  0  0  0
 16 55  1  0  0  0  0
 16 56  1  0  0  0  0
 17 18  1  0  0  0  0
 17 57  1  0  0  0  0
 17 58  1  0  0  0  0
 18 19  1  0  0  0  0
 18 26  1  0  0  0  0
 19 20  2  0  0  0  0
 19 24  1  0  0  0  0
 20 21  1  0  0  0  0
 20 59  1  0  0  0  0
 21 22  2  0  0  0  0
 21 60  1  0  0  0  0
 22 23  1  0  0  0  0
 22 61  1  0  0  0  0
 23 24  2  0  0  0  0
 23 27  1  0  0  0  0
 24 25  1  0  0  0  0
 25 26  2  0  0  0  0
 27 62  1  0  0  0  0
 27 63  1  0  0  0  0
 27 64  1  0  0  0  0
 47 65  1  0  0  0  0
 47 66  1  0  0  0  0
 47 67  1  0  0  0  0
 65 68  1  0  0  0  0
 65 69  1  0  0  0  0
 65 70  1  0  0  0  0
M  END
