./081518-26-5.hin
 OpenBabel10051109203D

 30 32  0  0  0  0  0  0  0  0999 V2000
    0.3143   -3.2922    1.3561 O   0  0  0  0  0  0  0  0  0  0  0  0
   -0.5391   -2.8247    0.3917 C   0  0  0  0  0  0  0  0  0  0  0  0
   -0.3645   -1.6298   -0.3300 C   0  0  0  0  0  0  0  0  0  0  0  0
   -1.3307   -1.2610   -1.2804 C   0  0  0  0  0  0  0  0  0  0  0  0
   -2.4405   -2.0631   -1.5095 C   0  0  0  0  0  0  0  0  0  0  0  0
   -2.6057   -3.2521   -0.7904 C   0  0  0  0  0  0  0  0  0  0  0  0
   -1.6687   -3.6371    0.1563 C   0  0  0  0  0  0  0  0  0  0  0  0
    0.8067   -0.7770   -0.1434 C   0  0  0  0  0  0  0  0  0  0  0  0
    2.0991   -1.1638   -0.2277 N   0  0  0  0  0  0  0  0  0  0  0  0
    2.8435   -0.0691    0.0017 N   0  0  0  0  0  0  0  0  0  0  0  0
    2.0769    1.1101    0.1787 C   0  0  0  0  0  0  0  0  0  0  0  0
    2.6195    2.5678    0.4277 S   0  0  0  0  0  0  0  0  0  0  0  0
    0.7468    0.6257    0.1083 N   0  0  0  0  0  0  0  0  0  0  0  0
   -0.4222    1.4100    0.2549 C   0  0  0  0  0  0  0  0  0  0  0  0
   -0.8634    2.2312   -0.8035 C   0  0  0  0  0  0  0  0  0  0  0  0
   -2.0104    3.0048   -0.6454 C   0  0  0  0  0  0  0  0  0  0  0  0
   -2.7274    2.9729    0.5499 C   0  0  0  0  0  0  0  0  0  0  0  0
   -2.2929    2.1643    1.5988 C   0  0  0  0  0  0  0  0  0  0  0  0
   -1.1454    1.3861    1.4647 C   0  0  0  0  0  0  0  0  0  0  0  0
    1.0603   -2.6832    1.4514 H   0  0  0  0  0  0  0  0  0  0  0  0
   -1.2010   -0.3223   -1.8429 H   0  0  0  0  0  0  0  0  0  0  0  0
   -3.1894   -1.7649   -2.2573 H   0  0  0  0  0  0  0  0  0  0  0  0
   -3.4856   -3.8869   -0.9771 H   0  0  0  0  0  0  0  0  0  0  0  0
   -1.7813   -4.5672    0.7321 H   0  0  0  0  0  0  0  0  0  0  0  0
    3.8262   -0.0862   -0.1627 H   0  0  0  0  0  0  0  0  0  0  0  0
   -0.3004    2.2770   -1.7488 H   0  0  0  0  0  0  0  0  0  0  0  0
   -2.3463    3.6489   -1.4722 H   0  0  0  0  0  0  0  0  0  0  0  0
   -3.6315    3.5888    0.6667 H   0  0  0  0  0  0  0  0  0  0  0  0
   -2.8537    2.1412    2.5456 H   0  0  0  0  0  0  0  0  0  0  0  0
   -0.8105    0.7598    2.3060 H   0  0  0  0  0  0  0  0  0  0  0  0
  1  2  1  0  0  0  0
  1 20  1  0  0  0  0
  2  3  2  0  0  0  0
  2  7  1  0  0  0  0
  3  4  1  0  0  0  0
  3  8  1  0  0  0  0
  4  5  2  0  0  0  0
  4 21  1  0  0  0  0
  5  6  1  0  0  0  0
  5 22  1  0  0  0  0
  6  7  2  0  0  0  0
  6 23  1  0  0  0  0
  7 24  1  0  0  0  0
  8  9  2  0  0  0  0
  8 13  1  0  0  0  0
  9 10  1  0  0  0  0
 10 11  1  0  0  0  0
 10 25  1  0  0  0  0
 11 12  2  0  0  0  0
 11 13  1  0  0  0  0
 13 14  1  0  0  0  0
 14 15  2  0  0  0  0
 14 19  1  0  0  0  0
 15 16  1  0  0  0  0
 15 26  1  0  0  0  0
 16 17  2  0  0  0  0
 16 27  1  0  0  0  0
 17 18  1  0  0  0  0
 17 28  1  0  0  0  0
 18 19  2  0  0  0  0
 18 29  1  0  0  0  0
 19 30  1  0  0  0  0
M  END
