./081518-27-6.hin
 OpenBabel10051109203D

 30 32  0  0  0  0  0  0  0  0999 V2000
   -2.3634    1.2988    2.2782 O   0  0  0  0  0  0  0  0  0  0  0  0
   -3.2009    1.2961    1.1913 C   0  0  0  0  0  0  0  0  0  0  0  0
   -2.8108    2.0579    0.0717 C   0  0  0  0  0  0  0  0  0  0  0  0
   -3.6485    2.1017   -1.0488 C   0  0  0  0  0  0  0  0  0  0  0  0
   -4.8437    1.3873   -1.0635 C   0  0  0  0  0  0  0  0  0  0  0  0
   -5.2186    0.6251    0.0449 C   0  0  0  0  0  0  0  0  0  0  0  0
   -4.4064    0.5746    1.1726 C   0  0  0  0  0  0  0  0  0  0  0  0
   -1.5771    2.8420    0.0918 C   0  0  0  0  0  0  0  0  0  0  0  0
   -1.5135    4.1847    0.2095 N   0  0  0  0  0  0  0  0  0  0  0  0
   -0.2092    4.5039    0.2193 N   0  0  0  0  0  0  0  0  0  0  0  0
    0.6510    3.3843    0.1493 C   0  0  0  0  0  0  0  0  0  0  0  0
    2.2307    3.4096    0.1845 S   0  0  0  0  0  0  0  0  0  0  0  0
   -0.2558    2.2972    0.0429 N   0  0  0  0  0  0  0  0  0  0  0  0
    0.0993    0.9516   -0.1831 C   0  0  0  0  0  0  0  0  0  0  0  0
   -0.6651    0.1451   -1.0540 C   0  0  0  0  0  0  0  0  0  0  0  0
   -0.3145   -1.1835   -1.2662 C   0  0  0  0  0  0  0  0  0  0  0  0
    0.8029   -1.7321   -0.6314 C   0  0  0  0  0  0  0  0  0  0  0  0
    1.2647   -3.5217   -0.9236 Br  0  0  0  0  0  0  0  0  0  0  0  0
    1.5740   -0.9355    0.2181 C   0  0  0  0  0  0  0  0  0  0  0  0
    1.2335    0.3944    0.4461 C   0  0  0  0  0  0  0  0  0  0  0  0
   -2.7538    0.7318    2.9611 H   0  0  0  0  0  0  0  0  0  0  0  0
   -3.3562    2.7112   -1.9185 H   0  0  0  0  0  0  0  0  0  0  0  0
   -5.4947    1.4278   -1.9489 H   0  0  0  0  0  0  0  0  0  0  0  0
   -6.1647    0.0622    0.0294 H   0  0  0  0  0  0  0  0  0  0  0  0
   -4.7016   -0.0205    2.0485 H   0  0  0  0  0  0  0  0  0  0  0  0
    0.0853    5.4406    0.3865 H   0  0  0  0  0  0  0  0  0  0  0  0
   -1.5485    0.5584   -1.5674 H   0  0  0  0  0  0  0  0  0  0  0  0
   -0.9270   -1.7960   -1.9471 H   0  0  0  0  0  0  0  0  0  0  0  0
    2.4652   -1.3495    0.7173 H   0  0  0  0  0  0  0  0  0  0  0  0
    1.8717    1.0179    1.0983 H   0  0  0  0  0  0  0  0  0  0  0  0
  1  2  1  0  0  0  0
  1 21  1  0  0  0  0
  2  3  2  0  0  0  0
  2  7  1  0  0  0  0
  3  4  1  0  0  0  0
  3  8  1  0  0  0  0
  4  5  2  0  0  0  0
  4 22  1  0  0  0  0
  5  6  1  0  0  0  0
  5 23  1  0  0  0  0
  6  7  2  0  0  0  0
  6 24  1  0  0  0  0
  7 25  1  0  0  0  0
  8  9  2  0  0  0  0
  8 13  1  0  0  0  0
  9 10  1  0  0  0  0
 10 11  1  0  0  0  0
 10 26  1  0  0  0  0
 11 12  2  0  0  0  0
 11 13  1  0  0  0  0
 13 14  1  0  0  0  0
 14 15  2  0  0  0  0
 14 20  1  0  0  0  0
 15 16  1  0  0  0  0
 15 27  1  0  0  0  0
 16 17  2  0  0  0  0
 16 28  1  0  0  0  0
 17 18  1  0  0  0  0
 17 19  1  0  0  0  0
 19 20  2  0  0  0  0
 19 29  1  0  0  0  0
 20 30  1  0  0  0  0
M  END
