./081518-29-8.hin
 OpenBabel10051109203D

 32 34  0  0  0  0  0  0  0  0999 V2000
   -1.5477   -4.2771   -0.3410 C   0  0  0  0  0  0  0  0  0  0  0  0
   -1.9174   -2.5670   -0.2631 S   0  0  0  0  0  0  0  0  0  0  0  0
   -0.4028   -1.8305   -0.3589 C   0  0  0  0  0  0  0  0  0  0  0  0
    0.8052   -2.4294   -0.6298 N   0  0  0  0  0  0  0  0  0  0  0  0
    1.7588   -1.5301   -0.6237 N   0  0  0  0  0  0  0  0  0  0  0  0
    1.2257   -0.2971   -0.3543 C   0  0  0  0  0  0  0  0  0  0  0  0
   -0.1699   -0.4529   -0.1671 N   0  0  0  0  0  0  0  0  0  0  0  0
   -1.1280    0.5200    0.1875 C   0  0  0  0  0  0  0  0  0  0  0  0
   -2.4336    0.4597   -0.3455 C   0  0  0  0  0  0  0  0  0  0  0  0
   -3.3768    1.4156    0.0212 C   0  0  0  0  0  0  0  0  0  0  0  0
   -3.0447    2.4368    0.9098 C   0  0  0  0  0  0  0  0  0  0  0  0
   -1.7566    2.5006    1.4394 C   0  0  0  0  0  0  0  0  0  0  0  0
   -0.7989    1.5528    1.0911 C   0  0  0  0  0  0  0  0  0  0  0  0
    1.9604    0.9636   -0.2918 C   0  0  0  0  0  0  0  0  0  0  0  0
    1.8254    1.9453   -1.2862 C   0  0  0  0  0  0  0  0  0  0  0  0
    0.7664    1.7237   -2.5944 Cl  0  0  0  0  0  0  0  0  0  0  0  0
    2.5759    3.1248   -1.2141 C   0  0  0  0  0  0  0  0  0  0  0  0
    3.4642    3.3188   -0.1587 C   0  0  0  0  0  0  0  0  0  0  0  0
    3.6109    2.3409    0.8254 C   0  0  0  0  0  0  0  0  0  0  0  0
    2.8641    1.1669    0.7596 C   0  0  0  0  0  0  0  0  0  0  0  0
   -0.8897   -4.6085    0.4931 H   0  0  0  0  0  0  0  0  0  0  0  0
   -1.0634   -4.5635   -1.3015 H   0  0  0  0  0  0  0  0  0  0  0  0
   -2.5364   -4.7877   -0.2581 H   0  0  0  0  0  0  0  0  0  0  0  0
   -2.7143   -0.3402   -1.0530 H   0  0  0  0  0  0  0  0  0  0  0  0
   -4.3922    1.3601   -0.4000 H   0  0  0  0  0  0  0  0  0  0  0  0
   -3.7957    3.1890    1.1925 H   0  0  0  0  0  0  0  0  0  0  0  0
   -1.4893    3.3040    2.1426 H   0  0  0  0  0  0  0  0  0  0  0  0
    0.2157    1.6165    1.5167 H   0  0  0  0  0  0  0  0  0  0  0  0
    2.4679    3.8936   -1.9945 H   0  0  0  0  0  0  0  0  0  0  0  0
    4.0553    4.2457   -0.1073 H   0  0  0  0  0  0  0  0  0  0  0  0
    4.3209    2.4924    1.6520 H   0  0  0  0  0  0  0  0  0  0  0  0
    2.9869    0.3856    1.5259 H   0  0  0  0  0  0  0  0  0  0  0  0
  1  2  1  0  0  0  0
  1 21  1  0  0  0  0
  1 22  1  0  0  0  0
  1 23  1  0  0  0  0
  2  3  1  0  0  0  0
  3  4  2  0  0  0  0
  3  7  1  0  0  0  0
  4  5  1  0  0  0  0
  5  6  2  0  0  0  0
  6  7  1  0  0  0  0
  6 14  1  0  0  0  0
  7  8  1  0  0  0  0
  8  9  2  0  0  0  0
  8 13  1  0  0  0  0
  9 10  1  0  0  0  0
  9 24  1  0  0  0  0
 10 11  2  0  0  0  0
 10 25  1  0  0  0  0
 11 12  1  0  0  0  0
 11 26  1  0  0  0  0
 12 13  2  0  0  0  0
 12 27  1  0  0  0  0
 13 28  1  0  0  0  0
 14 15  2  0  0  0  0
 14 20  1  0  0  0  0
 15 16  1  0  0  0  0
 15 17  1  0  0  0  0
 17 18  2  0  0  0  0
 17 29  1  0  0  0  0
 18 19  1  0  0  0  0
 18 30  1  0  0  0  0
 19 20  2  0  0  0  0
 19 31  1  0  0  0  0
 20 32  1  0  0  0  0
M  END
