./081518-41-4.hin
 OpenBabel10051109203D

 39 41  0  0  0  0  0  0  0  0999 V2000
    0.6807   -4.4833    0.4081 C   0  0  0  0  0  0  0  0  0  0  0  0
    0.5469   -3.6551   -0.7240 C   0  0  0  0  0  0  0  0  0  0  0  0
   -0.1874   -4.1205   -1.8203 C   0  0  0  0  0  0  0  0  0  0  0  0
   -0.7756   -5.3837   -1.7929 C   0  0  0  0  0  0  0  0  0  0  0  0
   -0.6276   -6.2018   -0.6725 C   0  0  0  0  0  0  0  0  0  0  0  0
    0.0973   -5.7601    0.4302 C   0  0  0  0  0  0  0  0  0  0  0  0
    1.2179   -2.3613   -0.7992 C   0  0  0  0  0  0  0  0  0  0  0  0
    2.4721   -2.1281   -1.2941 N   0  0  0  0  0  0  0  0  0  0  0  0
    2.7304   -0.8416   -1.2546 N   0  0  0  0  0  0  0  0  0  0  0  0
    1.6582   -0.1658   -0.7279 C   0  0  0  0  0  0  0  0  0  0  0  0
    0.6635   -1.1170   -0.4083 N   0  0  0  0  0  0  0  0  0  0  0  0
   -0.6026   -0.8450    0.1472 C   0  0  0  0  0  0  0  0  0  0  0  0
   -1.1438   -1.6781    1.1483 C   0  0  0  0  0  0  0  0  0  0  0  0
   -2.3952   -1.3987    1.6877 C   0  0  0  0  0  0  0  0  0  0  0  0
   -3.1228   -0.2871    1.2547 C   0  0  0  0  0  0  0  0  0  0  0  0
   -2.5860    0.5513    0.2743 C   0  0  0  0  0  0  0  0  0  0  0  0
   -1.3387    0.2815   -0.2794 C   0  0  0  0  0  0  0  0  0  0  0  0
   -4.8048    0.0796    1.9875 Br  0  0  0  0  0  0  0  0  0  0  0  0
    1.4845    1.4957   -0.4883 S   0  0  0  0  0  0  0  0  0  0  0  0
    3.1140    2.1569   -0.6527 C   0  0  0  0  0  0  0  0  0  0  0  0
    3.9961    1.9228    0.5469 C   0  0  0  0  0  0  0  0  0  0  0  0
    5.3061    2.6578    0.4086 C   0  0  0  0  0  0  0  0  0  0  0  0
    1.3669   -3.9762    1.4862 O   0  0  0  0  0  0  0  0  0  0  0  0
   -0.2889   -3.4827   -2.7123 H   0  0  0  0  0  0  0  0  0  0  0  0
   -1.3507   -5.7375   -2.6608 H   0  0  0  0  0  0  0  0  0  0  0  0
   -1.0848   -7.2029   -0.6581 H   0  0  0  0  0  0  0  0  0  0  0  0
    0.2197   -6.4036    1.3128 H   0  0  0  0  0  0  0  0  0  0  0  0
   -0.5747   -2.5521    1.5098 H   0  0  0  0  0  0  0  0  0  0  0  0
   -2.8024   -2.0639    2.4662 H   0  0  0  0  0  0  0  0  0  0  0  0
   -3.1452    1.4355   -0.0722 H   0  0  0  0  0  0  0  0  0  0  0  0
   -0.9302    0.9594   -1.0497 H   0  0  0  0  0  0  0  0  0  0  0  0
    3.6153    1.7767   -1.5764 H   0  0  0  0  0  0  0  0  0  0  0  0
    2.9225    3.2542   -0.7867 H   0  0  0  0  0  0  0  0  0  0  0  0
    3.4693    2.2639    1.4775 H   0  0  0  0  0  0  0  0  0  0  0  0
    4.1945    0.8231    0.6581 H   0  0  0  0  0  0  0  0  0  0  0  0
    5.9465    2.4703    1.3041 H   0  0  0  0  0  0  0  0  0  0  0  0
    5.8579    2.3122   -0.4988 H   0  0  0  0  0  0  0  0  0  0  0  0
    5.1362    3.7580    0.3198 H   0  0  0  0  0  0  0  0  0  0  0  0
    1.5396   -4.7054    2.1005 H   0  0  0  0  0  0  0  0  0  0  0  0
  1  2  2  0  0  0  0
  1  6  1  0  0  0  0
  1 23  1  0  0  0  0
  2  3  1  0  0  0  0
  2  7  1  0  0  0  0
  3  4  2  0  0  0  0
  3 24  1  0  0  0  0
  4  5  1  0  0  0  0
  4 25  1  0  0  0  0
  5  6  2  0  0  0  0
  5 26  1  0  0  0  0
  6 27  1  0  0  0  0
  7  8  2  0  0  0  0
  7 11  1  0  0  0  0
  8  9  1  0  0  0  0
  9 10  2  0  0  0  0
 10 11  1  0  0  0  0
 10 19  1  0  0  0  0
 11 12  1  0  0  0  0
 12 13  2  0  0  0  0
 12 17  1  0  0  0  0
 13 14  1  0  0  0  0
 13 28  1  0  0  0  0
 14 15  2  0  0  0  0
 14 29  1  0  0  0  0
 15 16  1  0  0  0  0
 15 18  1  0  0  0  0
 16 17  2  0  0  0  0
 16 30  1  0  0  0  0
 17 31  1  0  0  0  0
 19 20  1  0  0  0  0
 20 21  1  0  0  0  0
 20 32  1  0  0  0  0
 20 33  1  0  0  0  0
 21 22  1  0  0  0  0
 21 34  1  0  0  0  0
 21 35  1  0  0  0  0
 22 36  1  0  0  0  0
 22 37  1  0  0  0  0
 22 38  1  0  0  0  0
 23 39  1  0  0  0  0
M  END
