./083044-91-1.hin
 OpenBabel10051109203D

 49 51  0  0  0  0  0  0  0  0999 V2000
    5.2156   -1.3207   -0.0000 C   0  0  0  0  0  0  0  0  0  0  0  0
    3.7476   -1.0311   -0.0000 C   0  0  0  0  0  0  0  0  0  0  0  0
    2.8927   -2.2782   -0.0000 C   0  0  0  0  0  0  0  0  0  0  0  0
    6.1377   -0.5019   -0.0000 O   0  0  0  0  0  0  0  0  0  0  0  0
    5.5408   -2.6501   -0.0000 O   0  0  0  0  0  0  0  0  0  0  0  0
    1.4253   -2.0255   -0.0000 C   0  0  0  0  0  0  0  0  0  0  0  0
    0.5743   -3.1384    0.0000 C   0  0  0  0  0  0  0  0  0  0  0  0
   -0.8143   -3.0193    0.0000 C   0  0  0  0  0  0  0  0  0  0  0  0
   -1.3809   -1.7142   -0.0000 C   0  0  0  0  0  0  0  0  0  0  0  0
   -0.5287   -0.5765   -0.0000 C   0  0  0  0  0  0  0  0  0  0  0  0
    0.8737   -0.7526   -0.0000 C   0  0  0  0  0  0  0  0  0  0  0  0
   -2.7462   -1.6724   -0.0000 O   0  0  0  0  0  0  0  0  0  0  0  0
   -2.3415    1.0875   -0.0000 N   0  0  0  0  0  0  0  0  0  0  0  0
   -1.0301    0.7872   -0.0000 N   0  0  0  0  0  0  0  0  0  0  0  0
   -0.1951    1.8439   -0.0000 N   0  0  0  0  0  0  0  0  0  0  0  0
   -1.0132    2.9465   -0.0000 C   0  0  0  0  0  0  0  0  0  0  0  0
   -2.4024    2.4568   -0.0000 C   0  0  0  0  0  0  0  0  0  0  0  0
   -0.7491    4.3415   -0.0000 C   0  0  0  0  0  0  0  0  0  0  0  0
   -1.8299    5.1880   -0.0000 C   0  0  0  0  0  0  0  0  0  0  0  0
   -3.1828    4.7181   -0.0000 C   0  0  0  0  0  0  0  0  0  0  0  0
   -3.4795    3.3832    0.0000 C   0  0  0  0  0  0  0  0  0  0  0  0
   -1.5815    6.8710   -0.0000 Cl  0  0  0  0  0  0  0  0  0  0  0  0
   -1.5989   -4.3130    0.0000 C   0  0  0  0  0  0  0  0  0  0  0  0
   -3.1133   -4.1571   -0.0000 C   0  0  0  0  0  0  0  0  0  0  0  0
   -1.2233   -5.1151   -1.2472 C   0  0  0  0  0  0  0  0  0  0  0  0
   -1.2233   -5.1150    1.2473 C   0  0  0  0  0  0  0  0  0  0  0  0
    6.9335   -2.9691   -0.0000 C   0  0  0  0  0  0  0  0  0  0  0  0
    3.5341   -0.4050    0.9090 H   0  0  0  0  0  0  0  0  0  0  0  0
    3.5341   -0.4050   -0.9090 H   0  0  0  0  0  0  0  0  0  0  0  0
    3.1538   -2.8986   -0.9021 H   0  0  0  0  0  0  0  0  0  0  0  0
    3.1538   -2.8986    0.9021 H   0  0  0  0  0  0  0  0  0  0  0  0
    1.0331   -4.1419    0.0000 H   0  0  0  0  0  0  0  0  0  0  0  0
    1.5469    0.1211   -0.0000 H   0  0  0  0  0  0  0  0  0  0  0  0
   -3.0817   -0.7632   -0.0000 H   0  0  0  0  0  0  0  0  0  0  0  0
    0.2891    4.7047   -0.0000 H   0  0  0  0  0  0  0  0  0  0  0  0
   -3.9933    5.4648    0.0000 H   0  0  0  0  0  0  0  0  0  0  0  0
   -4.5164    3.0176    0.0000 H   0  0  0  0  0  0  0  0  0  0  0  0
   -3.4539   -3.6060   -0.9092 H   0  0  0  0  0  0  0  0  0  0  0  0
   -3.5924   -5.1669   -0.0000 H   0  0  0  0  0  0  0  0  0  0  0  0
   -3.4539   -3.6060    0.9092 H   0  0  0  0  0  0  0  0  0  0  0  0
   -0.1370   -5.3684   -1.2533 H   0  0  0  0  0  0  0  0  0  0  0  0
   -1.8052   -6.0680   -1.2715 H   0  0  0  0  0  0  0  0  0  0  0  0
   -1.4598   -4.5284   -2.1665 H   0  0  0  0  0  0  0  0  0  0  0  0
   -0.1370   -5.3683    1.2533 H   0  0  0  0  0  0  0  0  0  0  0  0
   -1.4598   -4.5284    2.1665 H   0  0  0  0  0  0  0  0  0  0  0  0
   -1.8052   -6.0680    1.2715 H   0  0  0  0  0  0  0  0  0  0  0  0
    6.9481   -4.0867   -0.0000 H   0  0  0  0  0  0  0  0  0  0  0  0
    7.4192   -2.5521   -0.9147 H   0  0  0  0  0  0  0  0  0  0  0  0
    7.4192   -2.5521    0.9147 H   0  0  0  0  0  0  0  0  0  0  0  0
  1  2  1  0  0  0  0
  1  4  2  0  0  0  0
  1  5  1  0  0  0  0
  2  3  1  0  0  0  0
  2 28  1  0  0  0  0
  2 29  1  0  0  0  0
  3  6  1  0  0  0  0
  3 30  1  0  0  0  0
  3 31  1  0  0  0  0
  5 27  1  0  0  0  0
  6  7  2  0  0  0  0
  6 11  1  0  0  0  0
  7  8  1  0  0  0  0
  7 32  1  0  0  0  0
  8  9  2  0  0  0  0
  8 23  1  0  0  0  0
  9 10  1  0  0  0  0
  9 12  1  0  0  0  0
 10 11  2  0  0  0  0
 10 14  1  0  0  0  0
 11 33  1  0  0  0  0
 12 34  1  0  0  0  0
 13 14  1  0  0  0  0
 13 17  2  0  0  0  0
 14 15  1  0  0  0  0
 15 16  2  0  0  0  0
 16 17  1  0  0  0  0
 16 18  1  0  0  0  0
 17 21  1  0  0  0  0
 18 19  2  0  0  0  0
 18 35  1  0  0  0  0
 19 20  1  0  0  0  0
 19 22  1  0  0  0  0
 20 21  2  0  0  0  0
 20 36  1  0  0  0  0
 21 37  1  0  0  0  0
 23 24  1  0  0  0  0
 23 25  1  0  0  0  0
 23 26  1  0  0  0  0
 24 38  1  0  0  0  0
 24 39  1  0  0  0  0
 24 40  1  0  0  0  0
 25 41  1  0  0  0  0
 25 42  1  0  0  0  0
 25 43  1  0  0  0  0
 26 44  1  0  0  0  0
 26 45  1  0  0  0  0
 26 46  1  0  0  0  0
 27 47  1  0  0  0  0
 27 48  1  0  0  0  0
 27 49  1  0  0  0  0
M  END
