./086386-73-4.hin
 OpenBabel10051109203D

 34 36  0  0  0  0  0  0  0  0999 V2000
   -1.6730   -3.3456    0.5926 C   0  0  0  0  0  0  0  0  0  0  0  0
   -2.3737   -3.6324   -0.5933 C   0  0  0  0  0  0  0  0  0  0  0  0
   -2.1219   -2.8977   -1.7616 C   0  0  0  0  0  0  0  0  0  0  0  0
   -1.1593   -1.8741   -1.7326 C   0  0  0  0  0  0  0  0  0  0  0  0
   -0.4380   -1.5882   -0.5480 C   0  0  0  0  0  0  0  0  0  0  0  0
    0.5926   -0.4877   -0.5617 C   0  0  0  0  0  0  0  0  0  0  0  0
    1.6150   -0.6823    0.5894 C   0  0  0  0  0  0  0  0  0  0  0  0
    2.8170    0.1155    0.4877 N   0  0  0  0  0  0  0  0  0  0  0  0
    2.9258    1.4050    0.8637 N   0  0  0  0  0  0  0  0  0  0  0  0
    4.2249    1.7295    0.6152 C   0  0  0  0  0  0  0  0  0  0  0  0
    4.9640    0.6600    0.0752 N   0  0  0  0  0  0  0  0  0  0  0  0
    4.0637   -0.3407    0.0003 C   0  0  0  0  0  0  0  0  0  0  0  0
    1.2658   -0.6050   -1.8139 O   0  0  0  0  0  0  0  0  0  0  0  0
   -0.1042    0.9024   -0.5083 C   0  0  0  0  0  0  0  0  0  0  0  0
   -0.8955    1.1523    0.6695 N   0  0  0  0  0  0  0  0  0  0  0  0
   -0.4520    1.8283    1.8322 C   0  0  0  0  0  0  0  0  0  0  0  0
   -1.4551    1.8687    2.7301 N   0  0  0  0  0  0  0  0  0  0  0  0
   -2.5093    1.1965    2.0798 C   0  0  0  0  0  0  0  0  0  0  0  0
   -2.1740    0.7588    0.8356 N   0  0  0  0  0  0  0  0  0  0  0  0
   -0.7202   -2.3333    0.5995 C   0  0  0  0  0  0  0  0  0  0  0  0
   -0.9417   -1.1599   -2.8602 F   0  0  0  0  0  0  0  0  0  0  0  0
   -3.2975   -4.6206   -0.6092 F   0  0  0  0  0  0  0  0  0  0  0  0
   -1.8873   -3.9210    1.5048 H   0  0  0  0  0  0  0  0  0  0  0  0
   -2.6721   -3.1132   -2.6888 H   0  0  0  0  0  0  0  0  0  0  0  0
    1.9400   -1.7621    0.5823 H   0  0  0  0  0  0  0  0  0  0  0  0
    1.1093   -0.4506    1.5701 H   0  0  0  0  0  0  0  0  0  0  0  0
    4.6628    2.7135    0.8139 H   0  0  0  0  0  0  0  0  0  0  0  0
    4.2287   -1.3573   -0.3725 H   0  0  0  0  0  0  0  0  0  0  0  0
    1.6991    0.2374   -2.0006 H   0  0  0  0  0  0  0  0  0  0  0  0
    0.6786    1.7098   -0.5681 H   0  0  0  0  0  0  0  0  0  0  0  0
   -0.7618    0.9676   -1.4258 H   0  0  0  0  0  0  0  0  0  0  0  0
    0.5545    2.2500    1.9379 H   0  0  0  0  0  0  0  0  0  0  0  0
   -3.4933    1.0535    2.5378 H   0  0  0  0  0  0  0  0  0  0  0  0
   -0.1953   -2.1237    1.5450 H   0  0  0  0  0  0  0  0  0  0  0  0
  1  2  2  0  0  0  0
  1 20  1  0  0  0  0
  1 23  1  0  0  0  0
  2  3  1  0  0  0  0
  2 22  1  0  0  0  0
  3  4  2  0  0  0  0
  3 24  1  0  0  0  0
  4  5  1  0  0  0  0
  4 21  1  0  0  0  0
  5  6  1  0  0  0  0
  5 20  2  0  0  0  0
  6  7  1  0  0  0  0
  6 13  1  0  0  0  0
  6 14  1  0  0  0  0
  7  8  1  0  0  0  0
  7 25  1  0  0  0  0
  7 26  1  0  0  0  0
  8  9  1  0  0  0  0
  8 12  1  0  0  0  0
  9 10  2  0  0  0  0
 10 11  1  0  0  0  0
 10 27  1  0  0  0  0
 11 12  2  0  0  0  0
 12 28  1  0  0  0  0
 13 29  1  0  0  0  0
 14 15  1  0  0  0  0
 14 30  1  0  0  0  0
 14 31  1  0  0  0  0
 15 16  1  0  0  0  0
 15 19  1  0  0  0  0
 16 17  2  0  0  0  0
 16 32  1  0  0  0  0
 17 18  1  0  0  0  0
 18 19  2  0  0  0  0
 18 33  1  0  0  0  0
 20 34  1  0  0  0  0
M  END
