./086598-92-7.hin
 OpenBabel10051109203D

 38 40  0  0  0  0  0  0  0  0999 V2000
    1.5669    0.2975    1.7313 C   0  0  0  0  0  0  0  0  0  0  0  0
    2.2180    0.0473    3.0999 C   0  0  0  0  0  0  0  0  0  0  0  0
    0.3943   -0.9440    1.5473 S   0  0  0  0  0  0  0  0  0  0  0  0
    1.9524    1.3029    1.0367 N   0  0  0  0  0  0  0  0  0  0  0  0
    3.6586    0.0015    3.0752 N   0  0  0  0  0  0  0  0  0  0  0  0
    4.4632    1.0676    3.2605 N   0  0  0  0  0  0  0  0  0  0  0  0
    5.7145    0.6016    3.0029 C   0  0  0  0  0  0  0  0  0  0  0  0
    5.7317   -0.7587    2.6271 N   0  0  0  0  0  0  0  0  0  0  0  0
    4.4341   -1.1116    2.6638 C   0  0  0  0  0  0  0  0  0  0  0  0
    1.4548    1.7023   -0.2159 C   0  0  0  0  0  0  0  0  0  0  0  0
    2.0354    1.2436   -1.4238 C   0  0  0  0  0  0  0  0  0  0  0  0
    1.6540    1.7851   -2.6532 C   0  0  0  0  0  0  0  0  0  0  0  0
    0.6789    2.7828   -2.6969 C   0  0  0  0  0  0  0  0  0  0  0  0
    0.0867    3.2457   -1.5176 C   0  0  0  0  0  0  0  0  0  0  0  0
    0.4686    2.7124   -0.2933 C   0  0  0  0  0  0  0  0  0  0  0  0
    0.2119    3.4372   -4.1918 Cl  0  0  0  0  0  0  0  0  0  0  0  0
    3.2187    0.0258   -1.4046 Cl  0  0  0  0  0  0  0  0  0  0  0  0
   -0.4288   -0.6952   -0.0075 C   0  0  0  0  0  0  0  0  0  0  0  0
   -1.4717   -1.7388   -0.1025 C   0  0  0  0  0  0  0  0  0  0  0  0
   -1.1654   -2.9965   -0.6389 C   0  0  0  0  0  0  0  0  0  0  0  0
   -2.1475   -3.9783   -0.7429 C   0  0  0  0  0  0  0  0  0  0  0  0
   -3.4487   -3.7019   -0.3103 C   0  0  0  0  0  0  0  0  0  0  0  0
   -3.7676   -2.4490    0.2235 C   0  0  0  0  0  0  0  0  0  0  0  0
   -2.7791   -1.4733    0.3250 C   0  0  0  0  0  0  0  0  0  0  0  0
   -4.6506   -4.8955   -0.4359 Cl  0  0  0  0  0  0  0  0  0  0  0  0
    1.8573   -0.9493    3.4931 H   0  0  0  0  0  0  0  0  0  0  0  0
    1.8781    0.8640    3.8023 H   0  0  0  0  0  0  0  0  0  0  0  0
    6.6242    1.2058    3.0780 H   0  0  0  0  0  0  0  0  0  0  0  0
    4.0066   -2.0944    2.4437 H   0  0  0  0  0  0  0  0  0  0  0  0
    2.1250    1.4249   -3.5825 H   0  0  0  0  0  0  0  0  0  0  0  0
   -0.6796    4.0361   -1.5544 H   0  0  0  0  0  0  0  0  0  0  0  0
    0.0068    3.0980    0.6298 H   0  0  0  0  0  0  0  0  0  0  0  0
    0.3071   -0.7826   -0.8468 H   0  0  0  0  0  0  0  0  0  0  0  0
   -0.8741    0.3303   -0.0506 H   0  0  0  0  0  0  0  0  0  0  0  0
   -0.1411   -3.2123   -0.9806 H   0  0  0  0  0  0  0  0  0  0  0  0
   -1.8986   -4.9644   -1.1639 H   0  0  0  0  0  0  0  0  0  0  0  0
   -4.7925   -2.2326    0.5615 H   0  0  0  0  0  0  0  0  0  0  0  0
   -3.0297   -0.4870    0.7448 H   0  0  0  0  0  0  0  0  0  0  0  0
  1  2  1  0  0  0  0
  1  3  1  0  0  0  0
  1  4  2  0  0  0  0
  2  5  1  0  0  0  0
  2 26  1  0  0  0  0
  2 27  1  0  0  0  0
  3 18  1  0  0  0  0
  4 10  1  0  0  0  0
  5  6  1  0  0  0  0
  5  9  1  0  0  0  0
  6  7  2  0  0  0  0
  7  8  1  0  0  0  0
  7 28  1  0  0  0  0
  8  9  2  0  0  0  0
  9 29  1  0  0  0  0
 10 11  2  0  0  0  0
 10 15  1  0  0  0  0
 11 12  1  0  0  0  0
 11 17  1  0  0  0  0
 12 13  2  0  0  0  0
 12 30  1  0  0  0  0
 13 14  1  0  0  0  0
 13 16  1  0  0  0  0
 14 15  2  0  0  0  0
 14 31  1  0  0  0  0
 15 32  1  0  0  0  0
 18 19  1  0  0  0  0
 18 33  1  0  0  0  0
 18 34  1  0  0  0  0
 19 20  2  0  0  0  0
 19 24  1  0  0  0  0
 20 21  1  0  0  0  0
 20 35  1  0  0  0  0
 21 22  2  0  0  0  0
 21 36  1  0  0  0  0
 22 23  1  0  0  0  0
 22 25  1  0  0  0  0
 23 24  2  0  0  0  0
 23 37  1  0  0  0  0
 24 38  1  0  0  0  0
M  END
