./089786-04-9.hin
  ACCLDraw05131623263D

 32 34  0  0  0  0  0  0  0  0999 V2000
    3.2766   -2.2877    0.7494 C   0  0  0  0  0  0  0  0  0  0  0  0
    2.3524   -1.6032    1.5519 C   0  0  0  0  0  0  0  0  0  0  0  0
    3.3349   -1.5989   -0.4824 N   0  0  0  0  0  0  0  0  0  0  0  0
    2.5533   -0.5997   -0.4603 N   0  0  0  0  0  0  0  0  0  0  0  0
    1.9196   -0.5379    0.7384 N   0  0  3  0  0  0  0  0  0  0  0  0
    0.9947    0.4857    1.1636 C   0  0  3  0  0  0  0  0  0  0  0  0
   -0.3248    0.6027    0.3844 C   0  0  3  0  0  0  0  0  0  0  0  0
   -0.9606   -0.7853    0.1105 C   0  0  3  0  0  0  0  0  0  0  0  0
   -2.4205   -0.7547    0.2429 N   0  0  3  0  0  0  0  0  0  0  0  0
   -2.8133    0.4574    1.0352 C   0  0  3  0  0  0  0  0  0  0  0  0
   -1.4938    1.5159    1.3775 S   0  0  3  0  0  0  0  0  0  0  0  0
   -0.1065    1.3776   -0.8998 C   0  0  3  0  0  0  0  0  0  0  0  0
   -0.4785   -1.3799   -1.1968 C   0  0  0  0  0  0  0  0  0  0  0  0
   -0.6928   -1.0280   -2.3575 O   0  0  0  0  0  0  0  0  0  0  0  0
    0.2913   -2.4850   -1.0095 O   0  0  0  0  0  0  0  0  0  0  0  0
   -1.1463    1.4200    2.7298 O   0  0  0  0  0  0  0  0  0  0  0  0
   -1.7132    2.7945    0.8643 O   0  0  0  0  0  0  0  0  0  0  0  0
   -3.8087    0.8555   -0.0914 C   0  0  3  0  0  0  0  0  0  0  0  0
   -3.2797   -0.3409   -0.8569 C   0  0  0  0  0  0  0  0  0  0  0  0
   -3.5763   -0.8910   -2.0268 O   0  0  0  0  0  0  0  0  0  0  0  0
    3.8717   -3.1753    0.9471 H   0  0  0  0  0  0  0  0  0  0  0  0
    1.9877   -1.7669    2.5632 H   0  0  0  0  0  0  0  0  0  0  0  0
    1.5201    1.4849    1.0937 H   0  0  0  0  0  0  0  0  0  0  0  0
    0.7606    0.2752    2.2511 H   0  0  0  0  0  0  0  0  0  0  0  0
   -0.6296   -1.4939    0.9371 H   0  0  0  0  0  0  0  0  0  0  0  0
   -3.3343    0.1263    1.9720 H   0  0  0  0  0  0  0  0  0  0  0  0
    0.6832    0.9086   -1.5353 H   0  0  0  0  0  0  0  0  0  0  0  0
   -1.0521    1.4005   -1.4988 H   0  0  0  0  0  0  0  0  0  0  0  0
    0.2033    2.4284   -0.6720 H   0  0  0  0  0  0  0  0  0  0  0  0
    0.6307   -2.7972   -1.8664 H   0  0  0  0  0  0  0  0  0  0  0  0
   -3.5967    1.8449   -0.5579 H   0  0  0  0  0  0  0  0  0  0  0  0
   -4.8785    0.7883    0.2010 H   0  0  0  0  0  0  0  0  0  0  0  0
  1  2  2  0  0  0  0
  1  3  1  0  0  0  0
  1 21  1  0  0  0  0
  2  5  1  0  0  0  0
  2 22  1  0  0  0  0
  3  4  2  0  0  0  0
  4  5  1  0  0  0  0
  5  6  1  0  0  0  0
  6  7  1  0  0  0  0
  6 23  1  0  0  0  0
  6 24  1  0  0  0  0
  7  8  1  0  0  0  0
  7 11  1  0  0  0  0
  7 12  1  0  0  0  0
  8  9  1  0  0  0  0
  8 13  1  0  0  0  0
  8 25  1  0  0  0  0
  9 10  1  0  0  0  0
  9 19  1  0  0  0  0
 10 11  1  0  0  0  0
 10 18  1  0  0  0  0
 10 26  1  0  0  0  0
 11 16  2  0  0  0  0
 11 17  2  0  0  0  0
 12 27  1  0  0  0  0
 12 28  1  0  0  0  0
 12 29  1  0  0  0  0
 13 14  2  0  0  0  0
 13 15  1  0  0  0  0
 15 30  1  0  0  0  0
 18 19  1  0  0  0  0
 18 31  1  0  0  0  0
 18 32  1  0  0  0  0
 19 20  2  0  0  0  0
M  END