./094270-86-7.hin
 OpenBabel10051109203D

 70 71  0  0  0  0  0  0  0  0999 V2000
   -2.4538   -2.2229    0.7214 C   0  0  0  0  0  0  0  0  0  0  0  0
   -3.4985   -1.5533   -0.1901 C   0  0  0  0  0  0  0  0  0  0  0  0
   -4.6836   -2.4980   -0.3762 C   0  0  0  0  0  0  0  0  0  0  0  0
   -5.0186   -2.7023   -1.8395 C   0  0  0  0  0  0  0  0  0  0  0  0
   -6.2143   -3.6161   -2.0070 C   0  0  0  0  0  0  0  0  0  0  0  0
   -6.5546   -3.8197   -3.4607 C   0  0  0  0  0  0  0  0  0  0  0  0
   -1.1547   -1.5641    0.7163 N   0  0  0  0  0  0  0  0  0  0  0  0
   -0.4602   -1.7290    1.9941 C   0  0  0  0  0  0  0  0  0  0  0  0
    0.6047   -0.7717    2.2686 N   0  0  0  0  0  0  0  0  0  0  0  0
    1.9276   -0.9856    1.9956 N   0  0  0  0  0  0  0  0  0  0  0  0
    2.6138    0.0632    2.1089 N   0  0  0  0  0  0  0  0  0  0  0  0
    1.7518    1.1598    2.4243 C   0  0  0  0  0  0  0  0  0  0  0  0
    0.4139    0.6103    2.4969 C   0  0  0  0  0  0  0  0  0  0  0  0
    1.9805    2.5213    2.6643 C   0  0  0  0  0  0  0  0  0  0  0  0
    0.8639    3.3037    2.9575 C   0  0  0  0  0  0  0  0  0  0  0  0
   -0.4322    2.7652    3.0166 C   0  0  0  0  0  0  0  0  0  0  0  0
   -0.6869    1.4180    2.7919 C   0  0  0  0  0  0  0  0  0  0  0  0
    3.3445    3.0866    2.6070 C   0  0  0  0  0  0  0  0  0  0  0  0
   -0.3435   -1.8562   -0.4556 C   0  0  0  0  0  0  0  0  0  0  0  0
    0.2255   -0.6160   -1.1730 C   0  0  0  0  0  0  0  0  0  0  0  0
    1.2544   -1.0778   -2.2035 C   0  0  0  0  0  0  0  0  0  0  0  0
    2.5265   -0.2576   -2.1391 C   0  0  0  0  0  0  0  0  0  0  0  0
    3.5072   -0.6811   -3.2122 C   0  0  0  0  0  0  0  0  0  0  0  0
    4.7805    0.1218   -3.1438 C   0  0  0  0  0  0  0  0  0  0  0  0
   -0.8893    0.1899   -1.8225 C   0  0  0  0  0  0  0  0  0  0  0  0
   -0.3975    1.4813   -2.4249 C   0  0  0  0  0  0  0  0  0  0  0  0
   -3.9367   -0.2217    0.4046 C   0  0  0  0  0  0  0  0  0  0  0  0
   -4.7247    0.6071   -0.5772 C   0  0  0  0  0  0  0  0  0  0  0  0
   -2.8727   -2.2210    1.7683 H   0  0  0  0  0  0  0  0  0  0  0  0
   -2.3465   -3.3038    0.4063 H   0  0  0  0  0  0  0  0  0  0  0  0
   -3.0270   -1.3535   -1.1946 H   0  0  0  0  0  0  0  0  0  0  0  0
   -4.4691   -3.4974    0.0881 H   0  0  0  0  0  0  0  0  0  0  0  0
   -5.5849   -2.0881    0.1527 H   0  0  0  0  0  0  0  0  0  0  0  0
   -5.2336   -1.7095   -2.3171 H   0  0  0  0  0  0  0  0  0  0  0  0
   -4.1343   -3.1417   -2.3722 H   0  0  0  0  0  0  0  0  0  0  0  0
   -5.9970   -4.6076   -1.5284 H   0  0  0  0  0  0  0  0  0  0  0  0
   -7.0976   -3.1781   -1.4711 H   0  0  0  0  0  0  0  0  0  0  0  0
   -7.4370   -4.4966   -3.5616 H   0  0  0  0  0  0  0  0  0  0  0  0
   -6.8000   -2.8453   -3.9485 H   0  0  0  0  0  0  0  0  0  0  0  0
   -5.6947   -4.2773   -4.0071 H   0  0  0  0  0  0  0  0  0  0  0  0
   -0.0044   -2.7642    2.0895 H   0  0  0  0  0  0  0  0  0  0  0  0
   -1.2146   -1.5718    2.8252 H   0  0  0  0  0  0  0  0  0  0  0  0
    0.9992    4.3795    3.1481 H   0  0  0  0  0  0  0  0  0  0  0  0
   -1.2737    3.4373    3.2470 H   0  0  0  0  0  0  0  0  0  0  0  0
   -1.7040    1.0064    2.8295 H   0  0  0  0  0  0  0  0  0  0  0  0
    3.3405    4.1803    2.8357 H   0  0  0  0  0  0  0  0  0  0  0  0
    4.0072    2.5688    3.3456 H   0  0  0  0  0  0  0  0  0  0  0  0
    3.7811    2.9357    1.5875 H   0  0  0  0  0  0  0  0  0  0  0  0
   -0.9583   -2.4267   -1.2108 H   0  0  0  0  0  0  0  0  0  0  0  0
    0.5270   -2.5178   -0.1670 H   0  0  0  0  0  0  0  0  0  0  0  0
    0.7355    0.0437   -0.4174 H   0  0  0  0  0  0  0  0  0  0  0  0
    1.5173   -2.1573   -2.0415 H   0  0  0  0  0  0  0  0  0  0  0  0
    0.8170   -1.0067   -3.2346 H   0  0  0  0  0  0  0  0  0  0  0  0
    2.2796    0.8304   -2.2626 H   0  0  0  0  0  0  0  0  0  0  0  0
    3.0012   -0.3769   -1.1291 H   0  0  0  0  0  0  0  0  0  0  0  0
    3.7432   -1.7717   -3.0931 H   0  0  0  0  0  0  0  0  0  0  0  0
    3.0352   -0.5542   -4.2223 H   0  0  0  0  0  0  0  0  0  0  0  0
    5.4900   -0.2060   -3.9414 H   0  0  0  0  0  0  0  0  0  0  0  0
    4.5687    1.2093   -3.2851 H   0  0  0  0  0  0  0  0  0  0  0  0
    5.2772   -0.0114   -2.1523 H   0  0  0  0  0  0  0  0  0  0  0  0
   -1.6708    0.4253   -1.0499 H   0  0  0  0  0  0  0  0  0  0  0  0
   -1.3840   -0.4302   -2.6170 H   0  0  0  0  0  0  0  0  0  0  0  0
   -1.2590    2.0746   -2.8167 H   0  0  0  0  0  0  0  0  0  0  0  0
    0.1361    2.0959   -1.6600 H   0  0  0  0  0  0  0  0  0  0  0  0
    0.3068    1.2849   -3.2696 H   0  0  0  0  0  0  0  0  0  0  0  0
   -3.0313    0.3582    0.7292 H   0  0  0  0  0  0  0  0  0  0  0  0
   -4.5542   -0.4086    1.3231 H   0  0  0  0  0  0  0  0  0  0  0  0
   -5.0376    1.5700   -0.1060 H   0  0  0  0  0  0  0  0  0  0  0  0
   -4.1062    0.8396   -1.4785 H   0  0  0  0  0  0  0  0  0  0  0  0
   -5.6413    0.0628   -0.9115 H   0  0  0  0  0  0  0  0  0  0  0  0
  1  2  1  0  0  0  0
  1  7  1  0  0  0  0
  1 29  1  0  0  0  0
  1 30  1  0  0  0  0
  2  3  1  0  0  0  0
  2 27  1  0  0  0  0
  2 31  1  0  0  0  0
  3  4  1  0  0  0  0
  3 32  1  0  0  0  0
  3 33  1  0  0  0  0
  4  5  1  0  0  0  0
  4 34  1  0  0  0  0
  4 35  1  0  0  0  0
  5  6  1  0  0  0  0
  5 36  1  0  0  0  0
  5 37  1  0  0  0  0
  6 38  1  0  0  0  0
  6 39  1  0  0  0  0
  6 40  1  0  0  0  0
  7  8  1  0  0  0  0
  7 19  1  0  0  0  0
  8  9  1  0  0  0  0
  8 41  1  0  0  0  0
  8 42  1  0  0  0  0
  9 10  1  0  0  0  0
  9 13  1  0  0  0  0
 10 11  2  0  0  0  0
 11 12  1  0  0  0  0
 12 13  2  0  0  0  0
 12 14  1  0  0  0  0
 13 17  1  0  0  0  0
 14 15  2  0  0  0  0
 14 18  1  0  0  0  0
 15 16  1  0  0  0  0
 15 43  1  0  0  0  0
 16 17  2  0  0  0  0
 16 44  1  0  0  0  0
 17 45  1  0  0  0  0
 18 46  1  0  0  0  0
 18 47  1  0  0  0  0
 18 48  1  0  0  0  0
 19 20  1  0  0  0  0
 19 49  1  0  0  0  0
 19 50  1  0  0  0  0
 20 21  1  0  0  0  0
 20 25  1  0  0  0  0
 20 51  1  0  0  0  0
 21 22  1  0  0  0  0
 21 52  1  0  0  0  0
 21 53  1  0  0  0  0
 22 23  1  0  0  0  0
 22 54  1  0  0  0  0
 22 55  1  0  0  0  0
 23 24  1  0  0  0  0
 23 56  1  0  0  0  0
 23 57  1  0  0  0  0
 24 58  1  0  0  0  0
 24 59  1  0  0  0  0
 24 60  1  0  0  0  0
 25 26  1  0  0  0  0
 25 61  1  0  0  0  0
 25 62  1  0  0  0  0
 26 63  1  0  0  0  0
 26 64  1  0  0  0  0
 26 65  1  0  0  0  0
 27 28  1  0  0  0  0
 27 66  1  0  0  0  0
 27 67  1  0  0  0  0
 28 68  1  0  0  0  0
 28 69  1  0  0  0  0
 28 70  1  0  0  0  0
M  END
