./094361-06-5.hin
 OpenBabel10051109203D

 38 40  0  0  0  0  0  0  0  0999 V2000
   -0.7583   -0.8998   -1.7370 C   0  0  0  0  0  0  0  0  0  0  0  0
   -0.1730   -0.5755   -0.5049 C   0  0  0  0  0  0  0  0  0  0  0  0
   -0.6351   -1.2069    0.6541 C   0  0  0  0  0  0  0  0  0  0  0  0
   -1.6676   -2.1419    0.5890 C   0  0  0  0  0  0  0  0  0  0  0  0
   -2.2438   -2.4537   -0.6451 C   0  0  0  0  0  0  0  0  0  0  0  0
   -1.7878   -1.8342   -1.8128 C   0  0  0  0  0  0  0  0  0  0  0  0
   -3.5032   -3.5918   -0.7263 Cl  0  0  0  0  0  0  0  0  0  0  0  0
    0.9323    0.4682   -0.4823 C   0  0  0  0  0  0  0  0  0  0  0  0
    1.8634    0.1708    0.7261 C   0  0  0  0  0  0  0  0  0  0  0  0
    3.1279    0.8710    0.7705 N   0  0  0  0  0  0  0  0  0  0  0  0
    3.4182    1.9789    1.6002 C   0  0  0  0  0  0  0  0  0  0  0  0
    4.7074    2.3372    1.4336 N   0  0  0  0  0  0  0  0  0  0  0  0
    5.1828    1.4159    0.4815 C   0  0  0  0  0  0  0  0  0  0  0  0
    4.2310    0.5275    0.0793 N   0  0  0  0  0  0  0  0  0  0  0  0
    1.6331    0.2815   -1.7083 O   0  0  0  0  0  0  0  0  0  0  0  0
    0.2723    1.8734   -0.4536 C   0  0  0  0  0  0  0  0  0  0  0  0
    1.1910    2.9725   -0.9415 C   0  0  0  0  0  0  0  0  0  0  0  0
   -0.3520    2.1667    0.8798 C   0  0  0  0  0  0  0  0  0  0  0  0
   -1.1451    3.4307    1.0904 C   0  0  0  0  0  0  0  0  0  0  0  0
    0.1541    3.2371    1.8118 C   0  0  0  0  0  0  0  0  0  0  0  0
   -0.3861   -0.4169   -2.6556 H   0  0  0  0  0  0  0  0  0  0  0  0
   -0.1978   -0.9837    1.6388 H   0  0  0  0  0  0  0  0  0  0  0  0
   -2.0227   -2.6316    1.5085 H   0  0  0  0  0  0  0  0  0  0  0  0
   -2.2361   -2.0822   -2.7869 H   0  0  0  0  0  0  0  0  0  0  0  0
    2.0738   -0.9389    0.7157 H   0  0  0  0  0  0  0  0  0  0  0  0
    1.3174    0.4427    1.6734 H   0  0  0  0  0  0  0  0  0  0  0  0
    2.6768    2.4458    2.2582 H   0  0  0  0  0  0  0  0  0  0  0  0
    6.2134    1.4207    0.1125 H   0  0  0  0  0  0  0  0  0  0  0  0
    2.3617    0.9126   -1.7393 H   0  0  0  0  0  0  0  0  0  0  0  0
   -0.5788    1.8134   -1.2002 H   0  0  0  0  0  0  0  0  0  0  0  0
    0.6572    3.9544   -0.9025 H   0  0  0  0  0  0  0  0  0  0  0  0
    2.1133    3.0568   -0.3199 H   0  0  0  0  0  0  0  0  0  0  0  0
    1.4886    2.7886   -2.0031 H   0  0  0  0  0  0  0  0  0  0  0  0
   -0.7660    1.2466    1.3480 H   0  0  0  0  0  0  0  0  0  0  0  0
   -2.0913    3.3724    1.6573 H   0  0  0  0  0  0  0  0  0  0  0  0
   -1.2012    4.1745    0.2756 H   0  0  0  0  0  0  0  0  0  0  0  0
    0.1417    3.0401    2.8988 H   0  0  0  0  0  0  0  0  0  0  0  0
    1.0223    3.8535    1.5158 H   0  0  0  0  0  0  0  0  0  0  0  0
  1  2  2  0  0  0  0
  1  6  1  0  0  0  0
  1 21  1  0  0  0  0
  2  3  1  0  0  0  0
  2  8  1  0  0  0  0
  3  4  2  0  0  0  0
  3 22  1  0  0  0  0
  4  5  1  0  0  0  0
  4 23  1  0  0  0  0
  5  6  2  0  0  0  0
  5  7  1  0  0  0  0
  6 24  1  0  0  0  0
  8  9  1  0  0  0  0
  8 15  1  0  0  0  0
  8 16  1  0  0  0  0
  9 10  1  0  0  0  0
  9 25  1  0  0  0  0
  9 26  1  0  0  0  0
 10 11  1  0  0  0  0
 10 14  1  0  0  0  0
 11 12  2  0  0  0  0
 11 27  1  0  0  0  0
 12 13  1  0  0  0  0
 13 14  2  0  0  0  0
 13 28  1  0  0  0  0
 15 29  1  0  0  0  0
 16 17  1  0  0  0  0
 16 18  1  0  0  0  0
 16 30  1  0  0  0  0
 17 31  1  0  0  0  0
 17 32  1  0  0  0  0
 17 33  1  0  0  0  0
 18 19  1  0  0  0  0
 18 20  1  0  0  0  0
 18 34  1  0  0  0  0
 19 20  1  0  0  0  0
 19 35  1  0  0  0  0
 19 36  1  0  0  0  0
 20 37  1  0  0  0  0
 20 38  1  0  0  0  0
M  END
