./098518-99-1.hin
 OpenBabel10051109203D

 39 42  0  0  0  0  0  0  0  0999 V2000
   -1.9742   -1.2203   -1.2618 C   0  0  0  0  0  0  0  0  0  0  0  0
   -1.7680    0.2025   -0.7323 C   0  0  0  0  0  0  0  0  0  0  0  0
   -0.8186    0.0530    0.3437 O   0  0  0  0  0  0  0  0  0  0  0  0
   -0.2417   -1.2490    0.3160 C   0  0  0  0  0  0  0  0  0  0  0  0
   -1.1048   -2.0518   -0.4824 O   0  0  0  0  0  0  0  0  0  0  0  0
   -0.1500   -1.8175    1.7582 C   0  0  0  0  0  0  0  0  0  0  0  0
   -1.4019   -1.8618    2.4719 N   0  0  0  0  0  0  0  0  0  0  0  0
   -2.1574   -0.7343    2.8693 C   0  0  0  0  0  0  0  0  0  0  0  0
   -3.2857   -1.1478    3.4799 N   0  0  0  0  0  0  0  0  0  0  0  0
   -3.1902   -2.5525    3.4292 C   0  0  0  0  0  0  0  0  0  0  0  0
   -2.0568   -2.9886    2.8129 N   0  0  0  0  0  0  0  0  0  0  0  0
    1.1340   -1.2199   -0.2739 C   0  0  0  0  0  0  0  0  0  0  0  0
    1.7234   -1.9023   -1.3110 C   0  0  0  0  0  0  0  0  0  0  0  0
    3.0982   -1.4424   -1.3844 C   0  0  0  0  0  0  0  0  0  0  0  0
    4.1971   -1.7293   -2.1909 C   0  0  0  0  0  0  0  0  0  0  0  0
    5.3908   -1.0560   -1.9435 C   0  0  0  0  0  0  0  0  0  0  0  0
    5.5034   -0.1095   -0.9130 C   0  0  0  0  0  0  0  0  0  0  0  0
    4.4261    0.2024   -0.0862 C   0  0  0  0  0  0  0  0  0  0  0  0
    3.2380   -0.4755   -0.3400 C   0  0  0  0  0  0  0  0  0  0  0  0
    2.0346   -0.3310    0.3532 O   0  0  0  0  0  0  0  0  0  0  0  0
   -3.0360    0.8314   -0.1812 C   0  0  0  0  0  0  0  0  0  0  0  0
   -2.8194    2.2726    0.2000 C   0  0  0  0  0  0  0  0  0  0  0  0
   -1.6777   -1.3243   -2.3352 H   0  0  0  0  0  0  0  0  0  0  0  0
   -3.0108   -1.6079   -1.0977 H   0  0  0  0  0  0  0  0  0  0  0  0
   -1.2893    0.8683   -1.4997 H   0  0  0  0  0  0  0  0  0  0  0  0
    0.2850   -2.8541    1.6826 H   0  0  0  0  0  0  0  0  0  0  0  0
    0.5562   -1.1452    2.3255 H   0  0  0  0  0  0  0  0  0  0  0  0
   -1.8336    0.2942    2.6696 H   0  0  0  0  0  0  0  0  0  0  0  0
   -3.9535   -3.2144    3.8494 H   0  0  0  0  0  0  0  0  0  0  0  0
    1.2608   -2.6479   -1.9537 H   0  0  0  0  0  0  0  0  0  0  0  0
    4.1213   -2.4684   -3.0005 H   0  0  0  0  0  0  0  0  0  0  0  0
    6.2704   -1.2688   -2.5696 H   0  0  0  0  0  0  0  0  0  0  0  0
    6.4667    0.3989   -0.7543 H   0  0  0  0  0  0  0  0  0  0  0  0
    4.5038    0.9413    0.7211 H   0  0  0  0  0  0  0  0  0  0  0  0
   -3.8340    0.7552   -0.9655 H   0  0  0  0  0  0  0  0  0  0  0  0
   -3.3760    0.2490    0.7170 H   0  0  0  0  0  0  0  0  0  0  0  0
   -3.7553    2.7013    0.6327 H   0  0  0  0  0  0  0  0  0  0  0  0
   -2.0041    2.3511    0.9604 H   0  0  0  0  0  0  0  0  0  0  0  0
   -2.5290    2.8805   -0.6906 H   0  0  0  0  0  0  0  0  0  0  0  0
  1  2  1  0  0  0  0
  1  5  1  0  0  0  0
  1 23  1  0  0  0  0
  1 24  1  0  0  0  0
  2  3  1  0  0  0  0
  2 21  1  0  0  0  0
  2 25  1  0  0  0  0
  3  4  1  0  0  0  0
  4  5  1  0  0  0  0
  4  6  1  0  0  0  0
  4 12  1  0  0  0  0
  6  7  1  0  0  0  0
  6 26  1  0  0  0  0
  6 27  1  0  0  0  0
  7  8  1  0  0  0  0
  7 11  1  0  0  0  0
  8  9  2  0  0  0  0
  8 28  1  0  0  0  0
  9 10  1  0  0  0  0
 10 11  2  0  0  0  0
 10 29  1  0  0  0  0
 12 13  2  0  0  0  0
 12 20  1  0  0  0  0
 13 14  1  0  0  0  0
 13 30  1  0  0  0  0
 14 15  2  0  0  0  0
 14 19  1  0  0  0  0
 15 16  1  0  0  0  0
 15 31  1  0  0  0  0
 16 17  2  0  0  0  0
 16 32  1  0  0  0  0
 17 18  1  0  0  0  0
 17 33  1  0  0  0  0
 18 19  2  0  0  0  0
 18 34  1  0  0  0  0
 19 20  1  0  0  0  0
 21 22  1  0  0  0  0
 21 35  1  0  0  0  0
 21 36  1  0  0  0  0
 22 37  1  0  0  0  0
 22 38  1  0  0  0  0
 22 39  1  0  0  0  0
M  END
