./098519-05-2.hin
 OpenBabel10051109203D

 33 36  0  0  0  0  0  0  0  0999 V2000
    2.7075   -5.3507    0.1706 Cl  0  0  0  0  0  0  0  0  0  0  0  0
    1.8069   -3.9071    0.1355 C   0  0  0  0  0  0  0  0  0  0  0  0
    2.4812   -2.6898    0.0154 C   0  0  0  0  0  0  0  0  0  0  0  0
    1.7168   -1.5269   -0.0106 C   0  0  0  0  0  0  0  0  0  0  0  0
    0.2935   -1.6228    0.0827 C   0  0  0  0  0  0  0  0  0  0  0  0
   -0.2832   -0.3523    0.0340 O   0  0  0  0  0  0  0  0  0  0  0  0
    0.7998    0.5465   -0.0813 C   0  0  0  0  0  0  0  0  0  0  0  0
    2.0081   -0.1085   -0.1143 C   0  0  0  0  0  0  0  0  0  0  0  0
    0.4297    1.9950   -0.1523 C   0  0  0  0  0  0  0  0  0  0  0  0
   -0.4307    2.2976   -1.4177 C   0  0  0  0  0  0  0  0  0  0  0  0
   -1.8564    2.2260   -1.2335 N   0  0  0  0  0  0  0  0  0  0  0  0
   -2.6281    1.0403   -1.1803 C   0  0  0  0  0  0  0  0  0  0  0  0
   -3.9098    1.3550   -0.9144 N   0  0  0  0  0  0  0  0  0  0  0  0
   -3.8844    2.7594   -0.7878 C   0  0  0  0  0  0  0  0  0  0  0  0
   -2.6441    3.2884   -0.9670 N   0  0  0  0  0  0  0  0  0  0  0  0
    1.6176    2.7832   -0.2632 O   0  0  0  0  0  0  0  0  0  0  0  0
    1.8814    3.4671    0.9689 C   0  0  0  0  0  0  0  0  0  0  0  0
    0.6582    3.2127    1.8417 C   0  0  0  0  0  0  0  0  0  0  0  0
   -0.2230    2.4173    1.0381 O   0  0  0  0  0  0  0  0  0  0  0  0
   -0.3805   -2.8337    0.2055 C   0  0  0  0  0  0  0  0  0  0  0  0
    0.4043   -3.9834    0.2302 C   0  0  0  0  0  0  0  0  0  0  0  0
    3.5776   -2.6479   -0.0557 H   0  0  0  0  0  0  0  0  0  0  0  0
    2.9953    0.3385   -0.2062 H   0  0  0  0  0  0  0  0  0  0  0  0
   -0.1466    3.3303   -1.7726 H   0  0  0  0  0  0  0  0  0  0  0  0
   -0.1472    1.5438   -2.2051 H   0  0  0  0  0  0  0  0  0  0  0  0
   -2.1998    0.0431   -1.3289 H   0  0  0  0  0  0  0  0  0  0  0  0
   -4.7795    3.3498   -0.5699 H   0  0  0  0  0  0  0  0  0  0  0  0
    2.0230    4.5456    0.7077 H   0  0  0  0  0  0  0  0  0  0  0  0
    2.8211    3.0408    1.4009 H   0  0  0  0  0  0  0  0  0  0  0  0
    0.0940    4.1442    2.0981 H   0  0  0  0  0  0  0  0  0  0  0  0
    0.8975    2.6305    2.7666 H   0  0  0  0  0  0  0  0  0  0  0  0
   -1.4748   -2.8775    0.2831 H   0  0  0  0  0  0  0  0  0  0  0  0
   -0.0812   -4.9673    0.3268 H   0  0  0  0  0  0  0  0  0  0  0  0
  1  2  1  0  0  0  0
  2  3  2  0  0  0  0
  2 21  1  0  0  0  0
  3  4  1  0  0  0  0
  3 22  1  0  0  0  0
  4  5  2  0  0  0  0
  4  8  1  0  0  0  0
  5  6  1  0  0  0  0
  5 20  1  0  0  0  0
  6  7  1  0  0  0  0
  7  8  2  0  0  0  0
  7  9  1  0  0  0  0
  8 23  1  0  0  0  0
  9 10  1  0  0  0  0
  9 16  1  0  0  0  0
  9 19  1  0  0  0  0
 10 11  1  0  0  0  0
 10 24  1  0  0  0  0
 10 25  1  0  0  0  0
 11 12  1  0  0  0  0
 11 15  1  0  0  0  0
 12 13  2  0  0  0  0
 12 26  1  0  0  0  0
 13 14  1  0  0  0  0
 14 15  2  0  0  0  0
 14 27  1  0  0  0  0
 16 17  1  0  0  0  0
 17 18  1  0  0  0  0
 17 28  1  0  0  0  0
 17 29  1  0  0  0  0
 18 19  1  0  0  0  0
 18 30  1  0  0  0  0
 18 31  1  0  0  0  0
 20 21  2  0  0  0  0
 20 32  1  0  0  0  0
 21 33  1  0  0  0  0
M  END
