./098519-24-5.hin
 OpenBabel10051109203D

 36 39  0  0  0  0  0  0  0  0999 V2000
   -2.0938   -1.5815   -1.2764 C   0  0  0  0  0  0  0  0  0  0  0  0
   -1.9933   -0.0526   -1.2229 C   0  0  0  0  0  0  0  0  0  0  0  0
   -1.1608    0.2141   -0.0752 O   0  0  0  0  0  0  0  0  0  0  0  0
   -0.5493   -0.9826    0.3802 C   0  0  0  0  0  0  0  0  0  0  0  0
   -1.3339   -2.0503   -0.1544 O   0  0  0  0  0  0  0  0  0  0  0  0
   -0.5764   -1.0291    1.9335 C   0  0  0  0  0  0  0  0  0  0  0  0
   -1.8954   -1.0528    2.5146 N   0  0  0  0  0  0  0  0  0  0  0  0
   -2.8289   -2.1076    2.3818 C   0  0  0  0  0  0  0  0  0  0  0  0
   -3.9720   -1.7716    3.0106 N   0  0  0  0  0  0  0  0  0  0  0  0
   -3.7029   -0.4830    3.5141 C   0  0  0  0  0  0  0  0  0  0  0  0
   -2.4520   -0.0409    3.2088 N   0  0  0  0  0  0  0  0  0  0  0  0
    0.8720   -1.1079   -0.0719 C   0  0  0  0  0  0  0  0  0  0  0  0
    1.7791   -2.1384    0.0180 C   0  0  0  0  0  0  0  0  0  0  0  0
    3.0092   -1.6649   -0.5886 C   0  0  0  0  0  0  0  0  0  0  0  0
    4.2749   -2.2023   -0.8127 C   0  0  0  0  0  0  0  0  0  0  0  0
    5.2259   -1.4074   -1.4470 C   0  0  0  0  0  0  0  0  0  0  0  0
    4.9362   -0.0962   -1.8569 C   0  0  0  0  0  0  0  0  0  0  0  0
    3.6821    0.4739   -1.6497 C   0  0  0  0  0  0  0  0  0  0  0  0
    2.7373   -0.3279   -1.0165 C   0  0  0  0  0  0  0  0  0  0  0  0
    1.4222    0.0246   -0.7062 O   0  0  0  0  0  0  0  0  0  0  0  0
   -1.3731    0.5530   -2.4598 C   0  0  0  0  0  0  0  0  0  0  0  0
   -1.6447   -2.0111   -2.2064 H   0  0  0  0  0  0  0  0  0  0  0  0
   -3.1357   -1.9586   -1.1263 H   0  0  0  0  0  0  0  0  0  0  0  0
   -2.9802    0.4283   -0.9850 H   0  0  0  0  0  0  0  0  0  0  0  0
   -0.0410   -1.9700    2.2467 H   0  0  0  0  0  0  0  0  0  0  0  0
   -0.0114   -0.1248    2.2993 H   0  0  0  0  0  0  0  0  0  0  0  0
   -2.6078   -3.0268    1.8284 H   0  0  0  0  0  0  0  0  0  0  0  0
   -4.4326    0.0913    4.0931 H   0  0  0  0  0  0  0  0  0  0  0  0
    1.6198   -3.1246    0.4467 H   0  0  0  0  0  0  0  0  0  0  0  0
    4.5137   -3.2271   -0.4960 H   0  0  0  0  0  0  0  0  0  0  0  0
    6.2317   -1.8134   -1.6331 H   0  0  0  0  0  0  0  0  0  0  0  0
    5.7198    0.4960   -2.3538 H   0  0  0  0  0  0  0  0  0  0  0  0
    3.4460    1.4983   -1.9643 H   0  0  0  0  0  0  0  0  0  0  0  0
   -1.9647    0.2634   -3.3601 H   0  0  0  0  0  0  0  0  0  0  0  0
   -1.3603    1.6660   -2.3720 H   0  0  0  0  0  0  0  0  0  0  0  0
   -0.3190    0.2006   -2.5772 H   0  0  0  0  0  0  0  0  0  0  0  0
  1  2  1  0  0  0  0
  1  5  1  0  0  0  0
  1 22  1  0  0  0  0
  1 23  1  0  0  0  0
  2  3  1  0  0  0  0
  2 21  1  0  0  0  0
  2 24  1  0  0  0  0
  3  4  1  0  0  0  0
  4  5  1  0  0  0  0
  4  6  1  0  0  0  0
  4 12  1  0  0  0  0
  6  7  1  0  0  0  0
  6 25  1  0  0  0  0
  6 26  1  0  0  0  0
  7  8  1  0  0  0  0
  7 11  1  0  0  0  0
  8  9  2  0  0  0  0
  8 27  1  0  0  0  0
  9 10  1  0  0  0  0
 10 11  2  0  0  0  0
 10 28  1  0  0  0  0
 12 13  2  0  0  0  0
 12 20  1  0  0  0  0
 13 14  1  0  0  0  0
 13 29  1  0  0  0  0
 14 15  2  0  0  0  0
 14 19  1  0  0  0  0
 15 16  1  0  0  0  0
 15 30  1  0  0  0  0
 16 17  2  0  0  0  0
 16 31  1  0  0  0  0
 17 18  1  0  0  0  0
 17 32  1  0  0  0  0
 18 19  2  0  0  0  0
 18 33  1  0  0  0  0
 19 20  1  0  0  0  0
 21 34  1  0  0  0  0
 21 35  1  0  0  0  0
 21 36  1  0  0  0  0
M  END
