./098519-28-9.hin
 OpenBabel10051109203D

 40 43  0  0  0  0  0  0  0  0999 V2000
   -0.8069   -0.4090   -2.8643 N   0  0  0  0  0  0  0  0  0  0  0  0
   -0.2525   -1.0783   -3.8927 N   0  0  0  0  0  0  0  0  0  0  0  0
   -1.3103   -1.4720   -4.6552 C   0  0  0  0  0  0  0  0  0  0  0  0
   -2.5528   -1.0758   -4.1225 N   0  0  0  0  0  0  0  0  0  0  0  0
   -2.2150   -0.4161   -2.9967 C   0  0  0  0  0  0  0  0  0  0  0  0
   -0.0806    0.1671   -1.7595 C   0  0  0  0  0  0  0  0  0  0  0  0
   -0.1637   -0.6415   -0.4352 C   0  0  0  0  0  0  0  0  0  0  0  0
    0.3840   -1.9446   -0.6222 O   0  0  0  0  0  0  0  0  0  0  0  0
   -0.5558   -2.9597   -0.2305 C   0  0  0  0  0  0  0  0  0  0  0  0
   -1.7728   -2.1923    0.2888 C   0  0  0  0  0  0  0  0  0  0  0  0
   -1.5320   -0.8267   -0.0730 O   0  0  0  0  0  0  0  0  0  0  0  0
    0.5795    0.0804    0.6438 C   0  0  0  0  0  0  0  0  0  0  0  0
    0.6638    1.4845    0.4845 O   0  0  0  0  0  0  0  0  0  0  0  0
    1.3803    1.9401    1.5922 C   0  0  0  0  0  0  0  0  0  0  0  0
    1.7426    0.8438    2.4360 C   0  0  0  0  0  0  0  0  0  0  0  0
    1.2055   -0.3413    1.7916 C   0  0  0  0  0  0  0  0  0  0  0  0
    2.4670    1.0975    3.5980 C   0  0  0  0  0  0  0  0  0  0  0  0
    2.8082    2.4161    3.8893 C   0  0  0  0  0  0  0  0  0  0  0  0
    2.4403    3.4758    3.0459 C   0  0  0  0  0  0  0  0  0  0  0  0
    1.7159    3.2602    1.8751 C   0  0  0  0  0  0  0  0  0  0  0  0
    0.1027   -3.9107    0.7614 C   0  0  0  0  0  0  0  0  0  0  0  0
    0.0751   -3.3226    2.0588 O   0  0  0  0  0  0  0  0  0  0  0  0
    0.7887   -4.0874    3.0171 C   0  0  0  0  0  0  0  0  0  0  0  0
   -1.2177   -2.0327   -5.5902 H   0  0  0  0  0  0  0  0  0  0  0  0
   -2.8810    0.0491   -2.2619 H   0  0  0  0  0  0  0  0  0  0  0  0
   -0.5136    1.1880   -1.5547 H   0  0  0  0  0  0  0  0  0  0  0  0
    1.0108    0.2623   -2.0219 H   0  0  0  0  0  0  0  0  0  0  0  0
   -0.7923   -3.5371   -1.1676 H   0  0  0  0  0  0  0  0  0  0  0  0
   -1.8770   -2.2494    1.4017 H   0  0  0  0  0  0  0  0  0  0  0  0
   -2.7244   -2.4855   -0.2203 H   0  0  0  0  0  0  0  0  0  0  0  0
    1.2787   -1.3662    2.1563 H   0  0  0  0  0  0  0  0  0  0  0  0
    2.7607    0.2765    4.2665 H   0  0  0  0  0  0  0  0  0  0  0  0
    3.3803    2.6366    4.8030 H   0  0  0  0  0  0  0  0  0  0  0  0
    2.7307    4.5025    3.3158 H   0  0  0  0  0  0  0  0  0  0  0  0
    1.4231    4.0822    1.2101 H   0  0  0  0  0  0  0  0  0  0  0  0
   -0.4667   -4.8785    0.7832 H   0  0  0  0  0  0  0  0  0  0  0  0
    1.1646   -4.1013    0.4497 H   0  0  0  0  0  0  0  0  0  0  0  0
    0.6651   -3.5181    3.9722 H   0  0  0  0  0  0  0  0  0  0  0  0
    0.3501   -5.1114    3.1099 H   0  0  0  0  0  0  0  0  0  0  0  0
    1.8690   -4.1577    2.7374 H   0  0  0  0  0  0  0  0  0  0  0  0
  1  2  1  0  0  0  0
  1  5  1  0  0  0  0
  1  6  1  0  0  0  0
  2  3  2  0  0  0  0
  3  4  1  0  0  0  0
  3 24  1  0  0  0  0
  4  5  2  0  0  0  0
  5 25  1  0  0  0  0
  6  7  1  0  0  0  0
  6 26  1  0  0  0  0
  6 27  1  0  0  0  0
  7  8  1  0  0  0  0
  7 11  1  0  0  0  0
  7 12  1  0  0  0  0
  8  9  1  0  0  0  0
  9 10  1  0  0  0  0
  9 21  1  0  0  0  0
  9 28  1  0  0  0  0
 10 11  1  0  0  0  0
 10 29  1  0  0  0  0
 10 30  1  0  0  0  0
 12 13  1  0  0  0  0
 12 16  2  0  0  0  0
 13 14  1  0  0  0  0
 14 15  2  0  0  0  0
 14 20  1  0  0  0  0
 15 16  1  0  0  0  0
 15 17  1  0  0  0  0
 16 31  1  0  0  0  0
 17 18  2  0  0  0  0
 17 32  1  0  0  0  0
 18 19  1  0  0  0  0
 18 33  1  0  0  0  0
 19 20  2  0  0  0  0
 19 34  1  0  0  0  0
 20 35  1  0  0  0  0
 21 22  1  0  0  0  0
 21 36  1  0  0  0  0
 21 37  1  0  0  0  0
 22 23  1  0  0  0  0
 23 38  1  0  0  0  0
 23 39  1  0  0  0  0
 23 40  1  0  0  0  0
M  END
