./098519-30-3.hin
 OpenBabel10051109203D

 47 51  0  0  0  0  0  0  0  0999 V2000
    0.2895   -0.7430   -3.8745 N   0  0  0  0  0  0  0  0  0  0  0  0
    0.8233   -1.6233   -4.7423 N   0  0  0  0  0  0  0  0  0  0  0  0
   -0.2403   -2.0933   -5.4515 C   0  0  0  0  0  0  0  0  0  0  0  0
   -1.4673   -1.5353   -5.0417 N   0  0  0  0  0  0  0  0  0  0  0  0
   -1.1136   -0.6961   -4.0481 C   0  0  0  0  0  0  0  0  0  0  0  0
    1.0263   -0.0123   -2.8730 C   0  0  0  0  0  0  0  0  0  0  0  0
    0.9027   -0.5807   -1.4319 C   0  0  0  0  0  0  0  0  0  0  0  0
    1.4141   -1.9116   -1.3862 O   0  0  0  0  0  0  0  0  0  0  0  0
    0.4340   -2.8222   -0.8630 C   0  0  0  0  0  0  0  0  0  0  0  0
   -0.7682   -1.9474   -0.5031 C   0  0  0  0  0  0  0  0  0  0  0  0
   -0.4747   -0.6632   -1.0658 O   0  0  0  0  0  0  0  0  0  0  0  0
    1.6560    0.2931   -0.4804 C   0  0  0  0  0  0  0  0  0  0  0  0
    1.7326    1.6580   -0.8487 O   0  0  0  0  0  0  0  0  0  0  0  0
    2.4639    2.2747    0.1676 C   0  0  0  0  0  0  0  0  0  0  0  0
    2.8426    1.3171    1.1597 C   0  0  0  0  0  0  0  0  0  0  0  0
    2.2994    0.0484    0.7082 C   0  0  0  0  0  0  0  0  0  0  0  0
    3.5854    1.7411    2.2588 C   0  0  0  0  0  0  0  0  0  0  0  0
    3.9271    3.0887    2.3445 C   0  0  0  0  0  0  0  0  0  0  0  0
    3.5419    4.0106    1.3589 C   0  0  0  0  0  0  0  0  0  0  0  0
    2.7996    3.6224    0.2451 C   0  0  0  0  0  0  0  0  0  0  0  0
    1.0400   -3.6263    0.2819 C   0  0  0  0  0  0  0  0  0  0  0  0
    1.0365   -2.8075    1.4539 O   0  0  0  0  0  0  0  0  0  0  0  0
    1.5392   -3.3971    2.6010 C   0  0  0  0  0  0  0  0  0  0  0  0
    2.0505   -4.6975    2.6703 C   0  0  0  0  0  0  0  0  0  0  0  0
    2.5272   -5.1726    3.8933 C   0  0  0  0  0  0  0  0  0  0  0  0
    2.4951   -4.3664    5.0283 C   0  0  0  0  0  0  0  0  0  0  0  0
    1.9837   -3.0686    4.9481 C   0  0  0  0  0  0  0  0  0  0  0  0
    1.5037   -2.5725    3.7418 C   0  0  0  0  0  0  0  0  0  0  0  0
   -0.1626   -2.8233   -6.2629 H   0  0  0  0  0  0  0  0  0  0  0  0
   -1.7658   -0.0643   -3.4357 H   0  0  0  0  0  0  0  0  0  0  0  0
    0.6286    1.0426   -2.8510 H   0  0  0  0  0  0  0  0  0  0  0  0
    2.1227   -0.0011   -3.1317 H   0  0  0  0  0  0  0  0  0  0  0  0
    0.1980   -3.5371   -1.7005 H   0  0  0  0  0  0  0  0  0  0  0  0
   -0.9000   -1.8262    0.6018 H   0  0  0  0  0  0  0  0  0  0  0  0
   -1.7174   -2.2900   -0.9855 H   0  0  0  0  0  0  0  0  0  0  0  0
    2.3827   -0.9091    1.2231 H   0  0  0  0  0  0  0  0  0  0  0  0
    3.8938    1.0282    3.0361 H   0  0  0  0  0  0  0  0  0  0  0  0
    4.5143    3.4431    3.2050 H   0  0  0  0  0  0  0  0  0  0  0  0
    3.8333    5.0664    1.4681 H   0  0  0  0  0  0  0  0  0  0  0  0
    2.4941    4.3359   -0.5302 H   0  0  0  0  0  0  0  0  0  0  0  0
    0.4179   -4.5426    0.4626 H   0  0  0  0  0  0  0  0  0  0  0  0
    2.0945   -3.9122    0.0253 H   0  0  0  0  0  0  0  0  0  0  0  0
    2.0853   -5.3457    1.7845 H   0  0  0  0  0  0  0  0  0  0  0  0
    2.9314   -6.1943    3.9547 H   0  0  0  0  0  0  0  0  0  0  0  0
    2.8716   -4.7494    5.9875 H   0  0  0  0  0  0  0  0  0  0  0  0
    1.9588   -2.4321    5.8455 H   0  0  0  0  0  0  0  0  0  0  0  0
    1.0979   -1.5543    3.6610 H   0  0  0  0  0  0  0  0  0  0  0  0
  1  2  1  0  0  0  0
  1  5  1  0  0  0  0
  1  6  1  0  0  0  0
  2  3  2  0  0  0  0
  3  4  1  0  0  0  0
  3 29  1  0  0  0  0
  4  5  2  0  0  0  0
  5 30  1  0  0  0  0
  6  7  1  0  0  0  0
  6 31  1  0  0  0  0
  6 32  1  0  0  0  0
  7  8  1  0  0  0  0
  7 11  1  0  0  0  0
  7 12  1  0  0  0  0
  8  9  1  0  0  0  0
  9 10  1  0  0  0  0
  9 21  1  0  0  0  0
  9 33  1  0  0  0  0
 10 11  1  0  0  0  0
 10 34  1  0  0  0  0
 10 35  1  0  0  0  0
 12 13  1  0  0  0  0
 12 16  2  0  0  0  0
 13 14  1  0  0  0  0
 14 15  2  0  0  0  0
 14 20  1  0  0  0  0
 15 16  1  0  0  0  0
 15 17  1  0  0  0  0
 16 36  1  0  0  0  0
 17 18  2  0  0  0  0
 17 37  1  0  0  0  0
 18 19  1  0  0  0  0
 18 38  1  0  0  0  0
 19 20  2  0  0  0  0
 19 39  1  0  0  0  0
 20 40  1  0  0  0  0
 21 22  1  0  0  0  0
 21 41  1  0  0  0  0
 21 42  1  0  0  0  0
 22 23  1  0  0  0  0
 23 24  2  0  0  0  0
 23 28  1  0  0  0  0
 24 25  1  0  0  0  0
 24 43  1  0  0  0  0
 25 26  2  0  0  0  0
 25 44  1  0  0  0  0
 26 27  1  0  0  0  0
 26 45  1  0  0  0  0
 27 28  2  0  0  0  0
 27 46  1  0  0  0  0
 28 47  1  0  0  0  0
M  END
