./098519-31-4.hin
  ACCLDraw05131623323D

 43 46  0  0  0  0  0  0  0  0999 V2000
    0.1433    1.5905   -1.6050 C   0  0  3  0  0  0  0  0  0  0  0  0
    1.1936    0.7168   -0.9142 C   0  0  3  0  0  0  0  0  0  0  0  0
    0.8058    0.7017    0.4715 O   0  0  0  0  0  0  0  0  0  0  0  0
   -0.5026    1.2366    0.6218 C   0  0  3  0  0  0  0  0  0  0  0  0
   -0.7558    1.9941   -0.5607 O   0  0  0  0  0  0  0  0  0  0  0  0
   -0.5494    2.1629    1.8691 C   0  0  3  0  0  0  0  0  0  0  0  0
    0.3177    3.3120    1.8017 N   0  0  3  0  0  0  0  0  0  0  0  0
    0.1860    4.3855    0.8892 C   0  0  0  0  0  0  0  0  0  0  0  0
    1.1932    5.2590    1.0824 N   0  0  0  0  0  0  0  0  0  0  0  0
    1.9383    4.6755    2.1268 C   0  0  0  0  0  0  0  0  0  0  0  0
    1.4178    3.4941    2.5586 N   0  0  0  0  0  0  0  0  0  0  0  0
   -1.5385    0.1691    0.7877 C   0  0  0  0  0  0  0  0  0  0  0  0
   -2.9120    0.2202    0.8438 C   0  0  0  0  0  0  0  0  0  0  0  0
   -3.3722   -1.1423    1.0378 C   0  0  0  0  0  0  0  0  0  0  0  0
   -4.6139   -1.7588    1.1757 C   0  0  0  0  0  0  0  0  0  0  0  0
   -4.6485   -3.1391    1.3554 C   0  0  0  0  0  0  0  0  0  0  0  0
   -3.4737   -3.9066    1.3994 C   0  0  0  0  0  0  0  0  0  0  0  0
   -2.2151   -3.3245    1.2651 C   0  0  0  0  0  0  0  0  0  0  0  0
   -2.1899   -1.9450    1.0847 C   0  0  0  0  0  0  0  0  0  0  0  0
   -1.0539   -1.1478    0.9274 O   0  0  0  0  0  0  0  0  0  0  0  0
    1.2234   -0.7228   -1.4231 C   0  0  3  0  0  0  0  0  0  0  0  0
    1.5353   -0.6551   -2.8108 O   0  0  0  0  0  0  0  0  0  0  0  0
    1.7027   -1.9517   -3.3869 C   0  0  3  0  0  0  0  0  0  0  0  0
    2.0340   -1.7402   -4.8457 C   0  0  3  0  0  0  0  0  0  0  0  0
   -0.4399    1.0298   -2.3771 H   0  0  0  0  0  0  0  0  0  0  0  0
    0.5702    2.5313   -2.0322 H   0  0  0  0  0  0  0  0  0  0  0  0
    2.2190    1.1704   -0.9424 H   0  0  0  0  0  0  0  0  0  0  0  0
   -1.6100    2.5314    1.9673 H   0  0  0  0  0  0  0  0  0  0  0  0
   -0.2783    1.5287    2.7608 H   0  0  0  0  0  0  0  0  0  0  0  0
   -0.6209    4.4377    0.1501 H   0  0  0  0  0  0  0  0  0  0  0  0
    2.8398    5.1371    2.5412 H   0  0  0  0  0  0  0  0  0  0  0  0
   -3.5460    1.0986    0.7520 H   0  0  0  0  0  0  0  0  0  0  0  0
   -5.5403   -1.1686    1.1434 H   0  0  0  0  0  0  0  0  0  0  0  0
   -5.6194   -3.6451    1.4667 Cl  0  0  0  0  0  0  0  0  0  0  0  0
   -3.5490   -4.9951    1.5448 H   0  0  0  0  0  0  0  0  0  0  0  0
   -1.2911   -3.9151    1.3010 Cl  0  0  0  0  0  0  0  0  0  0  0  0
    2.0087   -1.3050   -0.8728 H   0  0  0  0  0  0  0  0  0  0  0  0
    0.2254   -1.2148   -1.2724 H   0  0  0  0  0  0  0  0  0  0  0  0
    2.5328   -2.4911   -2.8569 H   0  0  0  0  0  0  0  0  0  0  0  0
    0.7524   -2.5376   -3.2665 H   0  0  0  0  0  0  0  0  0  0  0  0
    2.1796   -2.7309   -5.3376 H   0  0  0  0  0  0  0  0  0  0  0  0
    1.2065   -1.1943   -5.3584 H   0  0  0  0  0  0  0  0  0  0  0  0
    2.9681   -1.1382   -4.9496 H   0  0  0  0  0  0  0  0  0  0  0  0
  1  2  1  0  0  0  0
  1  5  1  0  0  0  0
  1 25  1  0  0  0  0
  1 26  1  0  0  0  0
  2  3  1  0  0  0  0
  2 21  1  0  0  0  0
  2 27  1  0  0  0  0
  3  4  1  0  0  0  0
  4  5  1  0  0  0  0
  4  6  1  0  0  0  0
  4 12  1  0  0  0  0
  6  7  1  0  0  0  0
  6 28  1  0  0  0  0
  6 29  1  0  0  0  0
  7  8  1  0  0  0  0
  7 11  1  0  0  0  0
  8  9  2  0  0  0  0
  8 30  1  0  0  0  0
  9 10  1  0  0  0  0
 10 11  2  0  0  0  0
 10 31  1  0  0  0  0
 12 13  2  0  0  0  0
 12 20  1  0  0  0  0
 13 14  1  0  0  0  0
 13 32  1  0  0  0  0
 14 15  2  0  0  0  0
 14 19  1  0  0  0  0
 15 16  1  0  0  0  0
 15 33  1  0  0  0  0
 16 17  2  0  0  0  0
 16 34  1  0  0  0  0
 17 18  1  0  0  0  0
 17 35  1  0  0  0  0
 18 19  2  0  0  0  0
 18 36  1  0  0  0  0
 19 20  1  0  0  0  0
 21 22  1  0  0  0  0
 21 37  1  0  0  0  0
 21 38  1  0  0  0  0
 22 23  1  0  0  0  0
 23 24  1  0  0  0  0
 23 39  1  0  0  0  0
 23 40  1  0  0  0  0
 24 41  1  0  0  0  0
 24 42  1  0  0  0  0
 24 43  1  0  0  0  0
M  END