./098519-33-6.hin
 OpenBabel10051109203D

 48 51  0  0  0  0  0  0  0  0999 V2000
    0.3190   -0.5579   -3.2700 N   0  0  0  0  0  0  0  0  0  0  0  0
   -0.7363   -0.0635   -3.7639 N   0  0  0  0  0  0  0  0  0  0  0  0
   -1.1039   -0.8942   -4.7554 C   0  0  0  0  0  0  0  0  0  0  0  0
   -0.2817   -1.9522   -4.9079 N   0  0  0  0  0  0  0  0  0  0  0  0
    0.6135   -1.6903   -3.9345 C   0  0  0  0  0  0  0  0  0  0  0  0
    1.0445   -0.0051   -2.1471 C   0  0  0  0  0  0  0  0  0  0  0  0
    0.3119   -0.2505   -0.8115 C   0  0  0  0  0  0  0  0  0  0  0  0
    0.1149   -1.6453   -0.7161 O   0  0  0  0  0  0  0  0  0  0  0  0
   -0.6693   -2.0435    0.3842 C   0  0  0  0  0  0  0  0  0  0  0  0
   -2.0513   -1.3795    0.2981 C   0  0  0  0  0  0  0  0  0  0  0  0
   -1.8010    0.1299    0.1683 C   0  0  0  0  0  0  0  0  0  0  0  0
   -0.9538    0.3620   -0.9311 O   0  0  0  0  0  0  0  0  0  0  0  0
   -2.9345   -1.7175    1.5228 C   0  0  0  0  0  0  0  0  0  0  0  0
   -2.4161   -1.2784    2.9031 C   0  0  0  0  0  0  0  0  0  0  0  0
   -3.3829   -1.6885    4.0242 C   0  0  0  0  0  0  0  0  0  0  0  0
   -2.7800   -1.8894   -0.9680 C   0  0  0  0  0  0  0  0  0  0  0  0
    1.1518    0.3209    0.2993 C   0  0  0  0  0  0  0  0  0  0  0  0
    1.8910   -0.3751    1.0017 O   0  0  0  0  0  0  0  0  0  0  0  0
    2.4643    0.3431    1.8194 C   0  0  0  0  0  0  0  0  0  0  0  0
    2.1144    1.6827    1.6911 C   0  0  0  0  0  0  0  0  0  0  0  0
    1.2106    1.6775    0.6373 C   0  0  0  0  0  0  0  0  0  0  0  0
    2.6361    2.6791    2.5065 C   0  0  0  0  0  0  0  0  0  0  0  0
    3.5489    2.2799    3.4884 C   0  0  0  0  0  0  0  0  0  0  0  0
    3.9108    0.9337    3.6300 C   0  0  0  0  0  0  0  0  0  0  0  0
    3.3734   -0.0541    2.7968 C   0  0  0  0  0  0  0  0  0  0  0  0
   -1.9967   -0.7296   -5.3793 H   0  0  0  0  0  0  0  0  0  0  0  0
    1.4733   -2.3435   -3.7141 H   0  0  0  0  0  0  0  0  0  0  0  0
    1.1882    1.0875   -2.3206 H   0  0  0  0  0  0  0  0  0  0  0  0
    2.0608   -0.4631   -2.1025 H   0  0  0  0  0  0  0  0  0  0  0  0
   -0.1195   -1.7902    1.3167 H   0  0  0  0  0  0  0  0  0  0  0  0
   -0.7511   -3.1527    0.3287 H   0  0  0  0  0  0  0  0  0  0  0  0
   -1.3318    0.5802    1.0711 H   0  0  0  0  0  0  0  0  0  0  0  0
   -2.7472    0.6793   -0.0389 H   0  0  0  0  0  0  0  0  0  0  0  0
   -3.9377   -1.2543    1.3709 H   0  0  0  0  0  0  0  0  0  0  0  0
   -3.0909   -2.8215    1.5482 H   0  0  0  0  0  0  0  0  0  0  0  0
   -1.4224   -1.7380    3.1126 H   0  0  0  0  0  0  0  0  0  0  0  0
   -2.2897   -0.1714    2.9386 H   0  0  0  0  0  0  0  0  0  0  0  0
   -3.0011   -1.3656    5.0207 H   0  0  0  0  0  0  0  0  0  0  0  0
   -4.3863   -1.2251    3.8812 H   0  0  0  0  0  0  0  0  0  0  0  0
   -3.5169   -2.7944    4.0569 H   0  0  0  0  0  0  0  0  0  0  0  0
   -2.9587   -2.9877   -0.9187 H   0  0  0  0  0  0  0  0  0  0  0  0
   -3.7701   -1.3948   -1.0938 H   0  0  0  0  0  0  0  0  0  0  0  0
   -2.1994   -1.6976   -1.8980 H   0  0  0  0  0  0  0  0  0  0  0  0
    0.6727    2.5258    0.1846 H   0  0  0  0  0  0  0  0  0  0  0  0
    2.3408    3.7340    2.3823 H   0  0  0  0  0  0  0  0  0  0  0  0
    3.9886    3.0364    4.1600 H   0  0  0  0  0  0  0  0  0  0  0  0
    4.6326    0.6457    4.4129 H   0  0  0  0  0  0  0  0  0  0  0  0
    3.6579   -1.1135    2.9088 H   0  0  0  0  0  0  0  0  0  0  0  0
  1  2  1  0  0  0  0
  1  5  1  0  0  0  0
  1  6  1  0  0  0  0
  2  3  2  0  0  0  0
  3  4  1  0  0  0  0
  3 26  1  0  0  0  0
  4  5  2  0  0  0  0
  5 27  1  0  0  0  0
  6  7  1  0  0  0  0
  6 28  1  0  0  0  0
  6 29  1  0  0  0  0
  7  8  1  0  0  0  0
  7 12  1  0  0  0  0
  7 17  1  0  0  0  0
  8  9  1  0  0  0  0
  9 10  1  0  0  0  0
  9 30  1  0  0  0  0
  9 31  1  0  0  0  0
 10 11  1  0  0  0  0
 10 13  1  0  0  0  0
 10 16  1  0  0  0  0
 11 12  1  0  0  0  0
 11 32  1  0  0  0  0
 11 33  1  0  0  0  0
 13 14  1  0  0  0  0
 13 34  1  0  0  0  0
 13 35  1  0  0  0  0
 14 15  1  0  0  0  0
 14 36  1  0  0  0  0
 14 37  1  0  0  0  0
 15 38  1  0  0  0  0
 15 39  1  0  0  0  0
 15 40  1  0  0  0  0
 16 41  1  0  0  0  0
 16 42  1  0  0  0  0
 16 43  1  0  0  0  0
 17 18  1  0  0  0  0
 17 21  2  0  0  0  0
 18 19  1  0  0  0  0
 19 20  2  0  0  0  0
 19 25  1  0  0  0  0
 20 21  1  0  0  0  0
 20 22  1  0  0  0  0
 21 44  1  0  0  0  0
 22 23  2  0  0  0  0
 22 45  1  0  0  0  0
 23 24  1  0  0  0  0
 23 46  1  0  0  0  0
 24 25  2  0  0  0  0
 24 47  1  0  0  0  0
 25 48  1  0  0  0  0
M  END
