./098519-34-7.hin
 OpenBabel10051109203D

 51 54  0  0  0  0  0  0  0  0999 V2000
    2.2284    2.2568   -3.2366 C   0  0  0  0  0  0  0  0  0  0  0  0
    1.8654    1.7408   -1.8682 C   0  0  0  0  0  0  0  0  0  0  0  0
    2.0354    0.2407   -1.7402 C   0  0  0  0  0  0  0  0  0  0  0  0
    0.9186   -0.5337   -2.4286 C   0  0  0  0  0  0  0  0  0  0  0  0
    1.1074   -2.0624   -2.4055 C   0  0  0  0  0  0  0  0  0  0  0  0
    0.6773   -2.5703   -1.0272 C   0  0  0  0  0  0  0  0  0  0  0  0
   -0.6317   -2.1117   -0.7024 O   0  0  0  0  0  0  0  0  0  0  0  0
   -0.7958   -0.7126   -0.6816 C   0  0  0  0  0  0  0  0  0  0  0  0
   -0.3719   -0.1711   -1.9238 O   0  0  0  0  0  0  0  0  0  0  0  0
   -2.3436   -0.4469   -0.6879 C   0  0  0  0  0  0  0  0  0  0  0  0
   -3.0485   -0.9529    0.4601 N   0  0  0  0  0  0  0  0  0  0  0  0
   -3.1883   -0.2887    1.7031 C   0  0  0  0  0  0  0  0  0  0  0  0
   -3.8672   -1.0785    2.5564 N   0  0  0  0  0  0  0  0  0  0  0  0
   -4.1192   -2.2403    1.7984 C   0  0  0  0  0  0  0  0  0  0  0  0
   -3.6199   -2.1713    0.5343 N   0  0  0  0  0  0  0  0  0  0  0  0
   -0.1575   -0.0328    0.4885 C   0  0  0  0  0  0  0  0  0  0  0  0
   -0.1981    1.2758    0.9169 C   0  0  0  0  0  0  0  0  0  0  0  0
    0.5578    1.3369    2.1536 C   0  0  0  0  0  0  0  0  0  0  0  0
    0.8894    2.3369    3.0652 C   0  0  0  0  0  0  0  0  0  0  0  0
    1.6546    1.9896    4.1755 C   0  0  0  0  0  0  0  0  0  0  0  0
    2.0889    0.6717    4.3890 C   0  0  0  0  0  0  0  0  0  0  0  0
    1.7773   -0.3536    3.4986 C   0  0  0  0  0  0  0  0  0  0  0  0
    1.0148    0.0032    2.3909 C   0  0  0  0  0  0  0  0  0  0  0  0
    0.5828   -0.8463    1.3697 O   0  0  0  0  0  0  0  0  0  0  0  0
    2.5452   -2.4664   -2.6678 C   0  0  0  0  0  0  0  0  0  0  0  0
    0.2124   -2.6775   -3.4741 C   0  0  0  0  0  0  0  0  0  0  0  0
    2.1192    3.3679   -3.2699 H   0  0  0  0  0  0  0  0  0  0  0  0
    3.2854    1.9996   -3.4899 H   0  0  0  0  0  0  0  0  0  0  0  0
    1.5633    1.8170   -4.0188 H   0  0  0  0  0  0  0  0  0  0  0  0
    2.5172    2.2406   -1.1026 H   0  0  0  0  0  0  0  0  0  0  0  0
    0.8019    2.0112   -1.6285 H   0  0  0  0  0  0  0  0  0  0  0  0
    3.0158   -0.0554   -2.1977 H   0  0  0  0  0  0  0  0  0  0  0  0
    2.0633   -0.0400   -0.6538 H   0  0  0  0  0  0  0  0  0  0  0  0
    0.8417   -0.1868   -3.5034 H   0  0  0  0  0  0  0  0  0  0  0  0
    1.4043   -2.2449   -0.2372 H   0  0  0  0  0  0  0  0  0  0  0  0
    0.5692   -3.6878   -1.0189 H   0  0  0  0  0  0  0  0  0  0  0  0
   -2.4854    0.6684   -0.7284 H   0  0  0  0  0  0  0  0  0  0  0  0
   -2.7488   -0.9212   -1.6266 H   0  0  0  0  0  0  0  0  0  0  0  0
   -2.7870    0.7113    1.8958 H   0  0  0  0  0  0  0  0  0  0  0  0
   -4.6628   -3.1016    2.1983 H   0  0  0  0  0  0  0  0  0  0  0  0
   -0.6807    2.1170    0.4255 H   0  0  0  0  0  0  0  0  0  0  0  0
    0.5537    3.3716    2.9106 H   0  0  0  0  0  0  0  0  0  0  0  0
    1.9259    2.7647    4.9081 H   0  0  0  0  0  0  0  0  0  0  0  0
    2.6883    0.4425    5.2833 H   0  0  0  0  0  0  0  0  0  0  0  0
    2.1070   -1.3877    3.6590 H   0  0  0  0  0  0  0  0  0  0  0  0
    3.2050   -2.1813   -1.8129 H   0  0  0  0  0  0  0  0  0  0  0  0
    2.6078   -3.5739   -2.8028 H   0  0  0  0  0  0  0  0  0  0  0  0
    2.9224   -1.9744   -3.5962 H   0  0  0  0  0  0  0  0  0  0  0  0
    0.5260   -2.3338   -4.4883 H   0  0  0  0  0  0  0  0  0  0  0  0
    0.2754   -3.7912   -3.4370 H   0  0  0  0  0  0  0  0  0  0  0  0
   -0.8473   -2.3710   -3.2953 H   0  0  0  0  0  0  0  0  0  0  0  0
  1  2  1  0  0  0  0
  1 27  1  0  0  0  0
  1 28  1  0  0  0  0
  1 29  1  0  0  0  0
  2  3  1  0  0  0  0
  2 30  1  0  0  0  0
  2 31  1  0  0  0  0
  3  4  1  0  0  0  0
  3 32  1  0  0  0  0
  3 33  1  0  0  0  0
  4  5  1  0  0  0  0
  4  9  1  0  0  0  0
  4 34  1  0  0  0  0
  5  6  1  0  0  0  0
  5 25  1  0  0  0  0
  5 26  1  0  0  0  0
  6  7  1  0  0  0  0
  6 35  1  0  0  0  0
  6 36  1  0  0  0  0
  7  8  1  0  0  0  0
  8  9  1  0  0  0  0
  8 10  1  0  0  0  0
  8 16  1  0  0  0  0
 10 11  1  0  0  0  0
 10 37  1  0  0  0  0
 10 38  1  0  0  0  0
 11 12  1  0  0  0  0
 11 15  1  0  0  0  0
 12 13  2  0  0  0  0
 12 39  1  0  0  0  0
 13 14  1  0  0  0  0
 14 15  2  0  0  0  0
 14 40  1  0  0  0  0
 16 17  2  0  0  0  0
 16 24  1  0  0  0  0
 17 18  1  0  0  0  0
 17 41  1  0  0  0  0
 18 19  2  0  0  0  0
 18 23  1  0  0  0  0
 19 20  1  0  0  0  0
 19 42  1  0  0  0  0
 20 21  2  0  0  0  0
 20 43  1  0  0  0  0
 21 22  1  0  0  0  0
 21 44  1  0  0  0  0
 22 23  2  0  0  0  0
 22 45  1  0  0  0  0
 23 24  1  0  0  0  0
 25 46  1  0  0  0  0
 25 47  1  0  0  0  0
 25 48  1  0  0  0  0
 26 49  1  0  0  0  0
 26 50  1  0  0  0  0
 26 51  1  0  0  0  0
M  END
