./098519-37-0.hin
 OpenBabel10051109203D

 54 57  0  0  0  0  0  0  0  0999 V2000
    0.1413    0.9536   -3.0226 N   0  0  0  0  0  0  0  0  0  0  0  0
   -0.4964    1.8215   -3.8336 N   0  0  0  0  0  0  0  0  0  0  0  0
   -1.1104    1.0357   -4.7603 C   0  0  0  0  0  0  0  0  0  0  0  0
   -0.8915   -0.3402   -4.5502 N   0  0  0  0  0  0  0  0  0  0  0  0
   -0.1112   -0.3698   -3.4517 C   0  0  0  0  0  0  0  0  0  0  0  0
    0.9021    1.3325   -1.8579 C   0  0  0  0  0  0  0  0  0  0  0  0
    0.4138    0.7069   -0.5146 C   0  0  0  0  0  0  0  0  0  0  0  0
    0.5201   -0.7033   -0.6383 O   0  0  0  0  0  0  0  0  0  0  0  0
   -0.0168   -1.4464    0.4565 C   0  0  0  0  0  0  0  0  0  0  0  0
   -1.4928   -1.1061    0.6955 C   0  0  0  0  0  0  0  0  0  0  0  0
   -1.5752    0.4249    0.7782 C   0  0  0  0  0  0  0  0  0  0  0  0
   -0.9510    1.0294   -0.3552 O   0  0  0  0  0  0  0  0  0  0  0  0
   -1.9917   -1.7597    1.9786 C   0  0  0  0  0  0  0  0  0  0  0  0
   -1.4813   -1.1522    3.2596 C   0  0  0  0  0  0  0  0  0  0  0  0
   -2.3398   -1.5680   -0.4940 C   0  0  0  0  0  0  0  0  0  0  0  0
   -2.5185   -3.0668   -0.5950 C   0  0  0  0  0  0  0  0  0  0  0  0
   -3.2379   -3.4371   -1.8765 C   0  0  0  0  0  0  0  0  0  0  0  0
   -3.4405   -4.9263   -1.9840 C   0  0  0  0  0  0  0  0  0  0  0  0
    1.2876    1.2270    0.5866 C   0  0  0  0  0  0  0  0  0  0  0  0
    0.8210    2.3861    1.2416 O   0  0  0  0  0  0  0  0  0  0  0  0
    1.8058    2.7045    2.1790 C   0  0  0  0  0  0  0  0  0  0  0  0
    2.8763    1.7587    2.1171 C   0  0  0  0  0  0  0  0  0  0  0  0
    2.5068    0.8181    1.0760 C   0  0  0  0  0  0  0  0  0  0  0  0
    3.9605    1.9077    2.9793 C   0  0  0  0  0  0  0  0  0  0  0  0
    3.9527    2.9782    3.8696 C   0  0  0  0  0  0  0  0  0  0  0  0
    2.8894    3.8943    3.9121 C   0  0  0  0  0  0  0  0  0  0  0  0
    1.7895    3.7772    3.0652 C   0  0  0  0  0  0  0  0  0  0  0  0
   -1.7129    1.4205   -5.5885 H   0  0  0  0  0  0  0  0  0  0  0  0
    0.2807   -1.2470   -2.9237 H   0  0  0  0  0  0  0  0  0  0  0  0
    0.8706    2.4513   -1.7244 H   0  0  0  0  0  0  0  0  0  0  0  0
    1.9652    0.9895   -2.0066 H   0  0  0  0  0  0  0  0  0  0  0  0
    0.5916   -1.2337    1.3755 H   0  0  0  0  0  0  0  0  0  0  0  0
    0.1184   -2.5141    0.1404 H   0  0  0  0  0  0  0  0  0  0  0  0
   -1.0807    0.8062    1.7107 H   0  0  0  0  0  0  0  0  0  0  0  0
   -2.6349    0.7874    0.7198 H   0  0  0  0  0  0  0  0  0  0  0  0
   -3.1145   -1.7179    1.9811 H   0  0  0  0  0  0  0  0  0  0  0  0
   -1.6997   -2.8449    1.9486 H   0  0  0  0  0  0  0  0  0  0  0  0
   -1.7571   -1.8090    4.1213 H   0  0  0  0  0  0  0  0  0  0  0  0
   -0.3705   -1.0420    3.2479 H   0  0  0  0  0  0  0  0  0  0  0  0
   -1.9336   -0.1462    3.4367 H   0  0  0  0  0  0  0  0  0  0  0  0
   -3.3513   -1.0865   -0.4225 H   0  0  0  0  0  0  0  0  0  0  0  0
   -1.8503   -1.1817   -1.4306 H   0  0  0  0  0  0  0  0  0  0  0  0
   -1.5223   -3.5811   -0.5675 H   0  0  0  0  0  0  0  0  0  0  0  0
   -3.1094   -3.4424    0.2822 H   0  0  0  0  0  0  0  0  0  0  0  0
   -4.2319   -2.9175   -1.9091 H   0  0  0  0  0  0  0  0  0  0  0  0
   -2.6466   -3.0717   -2.7577 H   0  0  0  0  0  0  0  0  0  0  0  0
   -3.9711   -5.1768   -2.9342 H   0  0  0  0  0  0  0  0  0  0  0  0
   -2.4592   -5.4597   -1.9775 H   0  0  0  0  0  0  0  0  0  0  0  0
   -4.0505   -5.3056   -1.1287 H   0  0  0  0  0  0  0  0  0  0  0  0
    3.0901   -0.0422    0.7563 H   0  0  0  0  0  0  0  0  0  0  0  0
    4.7992    1.1981    2.9544 H   0  0  0  0  0  0  0  0  0  0  0  0
    4.8002    3.1140    4.5584 H   0  0  0  0  0  0  0  0  0  0  0  0
    2.9266    4.7262    4.6320 H   0  0  0  0  0  0  0  0  0  0  0  0
    0.9544    4.4887    3.0889 H   0  0  0  0  0  0  0  0  0  0  0  0
  1  2  1  0  0  0  0
  1  5  1  0  0  0  0
  1  6  1  0  0  0  0
  2  3  2  0  0  0  0
  3  4  1  0  0  0  0
  3 28  1  0  0  0  0
  4  5  2  0  0  0  0
  5 29  1  0  0  0  0
  6  7  1  0  0  0  0
  6 30  1  0  0  0  0
  6 31  1  0  0  0  0
  7  8  1  0  0  0  0
  7 12  1  0  0  0  0
  7 19  1  0  0  0  0
  8  9  1  0  0  0  0
  9 10  1  0  0  0  0
  9 32  1  0  0  0  0
  9 33  1  0  0  0  0
 10 11  1  0  0  0  0
 10 13  1  0  0  0  0
 10 15  1  0  0  0  0
 11 12  1  0  0  0  0
 11 34  1  0  0  0  0
 11 35  1  0  0  0  0
 13 14  1  0  0  0  0
 13 36  1  0  0  0  0
 13 37  1  0  0  0  0
 14 38  1  0  0  0  0
 14 39  1  0  0  0  0
 14 40  1  0  0  0  0
 15 16  1  0  0  0  0
 15 41  1  0  0  0  0
 15 42  1  0  0  0  0
 16 17  1  0  0  0  0
 16 43  1  0  0  0  0
 16 44  1  0  0  0  0
 17 18  1  0  0  0  0
 17 45  1  0  0  0  0
 17 46  1  0  0  0  0
 18 47  1  0  0  0  0
 18 48  1  0  0  0  0
 18 49  1  0  0  0  0
 19 20  1  0  0  0  0
 19 23  2  0  0  0  0
 20 21  1  0  0  0  0
 21 22  2  0  0  0  0
 21 27  1  0  0  0  0
 22 23  1  0  0  0  0
 22 24  1  0  0  0  0
 23 50  1  0  0  0  0
 24 25  2  0  0  0  0
 24 51  1  0  0  0  0
 25 26  1  0  0  0  0
 25 52  1  0  0  0  0
 26 27  2  0  0  0  0
 26 53  1  0  0  0  0
 27 54  1  0  0  0  0
M  END
