./098519-43-8.hin
 OpenBabel10051109203D

 39 42  0  0  0  0  0  0  0  0999 V2000
   -3.0026   -1.2489   -0.6133 C   0  0  0  0  0  0  0  0  0  0  0  0
   -3.0048    0.2805   -0.6952 C   0  0  0  0  0  0  0  0  0  0  0  0
   -2.0207    0.6966    0.2725 O   0  0  0  0  0  0  0  0  0  0  0  0
   -1.2774   -0.4230    0.7433 C   0  0  0  0  0  0  0  0  0  0  0  0
   -2.0201   -1.5802    0.3771 O   0  0  0  0  0  0  0  0  0  0  0  0
   -1.1269   -0.3445    2.2880 C   0  0  0  0  0  0  0  0  0  0  0  0
   -2.3683   -0.2201    3.0093 N   0  0  0  0  0  0  0  0  0  0  0  0
   -3.2028    0.9225    3.0057 C   0  0  0  0  0  0  0  0  0  0  0  0
   -4.3042    0.6707    3.7397 N   0  0  0  0  0  0  0  0  0  0  0  0
   -4.1131   -0.6567    4.1735 C   0  0  0  0  0  0  0  0  0  0  0  0
   -2.9487   -1.2022    3.7262 N   0  0  0  0  0  0  0  0  0  0  0  0
    0.0893   -0.4685    0.1329 C   0  0  0  0  0  0  0  0  0  0  0  0
    0.7776   -1.4417   -0.5511 C   0  0  0  0  0  0  0  0  0  0  0  0
    2.0796   -0.8839   -0.8697 C   0  0  0  0  0  0  0  0  0  0  0  0
    2.0755    0.4400   -0.3293 C   0  0  0  0  0  0  0  0  0  0  0  0
    0.8556    0.7071    0.2933 O   0  0  0  0  0  0  0  0  0  0  0  0
    3.1595    1.3060   -0.4340 C   0  0  0  0  0  0  0  0  0  0  0  0
    4.2812    0.8227   -1.1018 C   0  0  0  0  0  0  0  0  0  0  0  0
    4.3021   -0.4788   -1.6384 C   0  0  0  0  0  0  0  0  0  0  0  0
    3.2127   -1.3463   -1.5327 C   0  0  0  0  0  0  0  0  0  0  0  0
    5.7055   -1.0080   -2.4426 Cl  0  0  0  0  0  0  0  0  0  0  0  0
   -2.6362    0.8288   -2.0630 C   0  0  0  0  0  0  0  0  0  0  0  0
   -3.7708    0.6679   -3.0401 C   0  0  0  0  0  0  0  0  0  0  0  0
   -2.7006   -1.7339   -1.5753 H   0  0  0  0  0  0  0  0  0  0  0  0
   -3.9718   -1.6691   -0.2454 H   0  0  0  0  0  0  0  0  0  0  0  0
   -3.9752    0.7210   -0.3386 H   0  0  0  0  0  0  0  0  0  0  0  0
   -0.5828   -1.2739    2.6188 H   0  0  0  0  0  0  0  0  0  0  0  0
   -0.5006    0.5675    2.5068 H   0  0  0  0  0  0  0  0  0  0  0  0
   -2.9478    1.8390    2.4625 H   0  0  0  0  0  0  0  0  0  0  0  0
   -4.8329   -1.1817    4.8090 H   0  0  0  0  0  0  0  0  0  0  0  0
    0.4273   -2.4399   -0.8048 H   0  0  0  0  0  0  0  0  0  0  0  0
    3.1286    2.3186   -0.0112 H   0  0  0  0  0  0  0  0  0  0  0  0
    5.1658    1.4698   -1.2116 H   0  0  0  0  0  0  0  0  0  0  0  0
    3.2455   -2.3602   -1.9569 H   0  0  0  0  0  0  0  0  0  0  0  0
   -2.3755    1.9149   -1.9505 H   0  0  0  0  0  0  0  0  0  0  0  0
   -1.7191    0.3071   -2.4430 H   0  0  0  0  0  0  0  0  0  0  0  0
   -3.4741    1.0693   -4.0393 H   0  0  0  0  0  0  0  0  0  0  0  0
   -4.0415   -0.4096   -3.1590 H   0  0  0  0  0  0  0  0  0  0  0  0
   -4.6764    1.2220   -2.6929 H   0  0  0  0  0  0  0  0  0  0  0  0
  1  2  1  0  0  0  0
  1  5  1  0  0  0  0
  1 24  1  0  0  0  0
  1 25  1  0  0  0  0
  2  3  1  0  0  0  0
  2 22  1  0  0  0  0
  2 26  1  0  0  0  0
  3  4  1  0  0  0  0
  4  5  1  0  0  0  0
  4  6  1  0  0  0  0
  4 12  1  0  0  0  0
  6  7  1  0  0  0  0
  6 27  1  0  0  0  0
  6 28  1  0  0  0  0
  7  8  1  0  0  0  0
  7 11  1  0  0  0  0
  8  9  2  0  0  0  0
  8 29  1  0  0  0  0
  9 10  1  0  0  0  0
 10 11  2  0  0  0  0
 10 30  1  0  0  0  0
 12 13  2  0  0  0  0
 12 16  1  0  0  0  0
 13 14  1  0  0  0  0
 13 31  1  0  0  0  0
 14 15  2  0  0  0  0
 14 20  1  0  0  0  0
 15 16  1  0  0  0  0
 15 17  1  0  0  0  0
 17 18  2  0  0  0  0
 17 32  1  0  0  0  0
 18 19  1  0  0  0  0
 18 33  1  0  0  0  0
 19 20  2  0  0  0  0
 19 21  1  0  0  0  0
 20 34  1  0  0  0  0
 22 23  1  0  0  0  0
 22 35  1  0  0  0  0
 22 36  1  0  0  0  0
 23 37  1  0  0  0  0
 23 38  1  0  0  0  0
 23 39  1  0  0  0  0
M  END
