./098532-65-1.hin
 OpenBabel10051109203D

 33 36  0  0  0  0  0  0  0  0999 V2000
    0.3936   -0.8905   -1.2388 C   0  0  0  0  0  0  0  0  0  0  0  0
   -0.1812   -1.2418   -2.5131 N   0  0  0  0  0  0  0  0  0  0  0  0
   -1.0493   -0.4203   -3.2701 C   0  0  0  0  0  0  0  0  0  0  0  0
   -1.4357   -1.0837   -4.3774 N   0  0  0  0  0  0  0  0  0  0  0  0
   -0.7854   -2.3283   -4.2580 C   0  0  0  0  0  0  0  0  0  0  0  0
   -0.0335   -2.4316   -3.1276 N   0  0  0  0  0  0  0  0  0  0  0  0
   -0.6192   -0.8293   -0.0632 C   0  0  0  0  0  0  0  0  0  0  0  0
   -1.2007   -2.1102    0.1562 O   0  0  0  0  0  0  0  0  0  0  0  0
   -2.6181   -1.9886    0.3398 C   0  0  0  0  0  0  0  0  0  0  0  0
   -2.9464   -0.5398   -0.0083 C   0  0  0  0  0  0  0  0  0  0  0  0
   -1.6960    0.0456   -0.3956 O   0  0  0  0  0  0  0  0  0  0  0  0
    0.0950   -0.3644    1.1669 C   0  0  0  0  0  0  0  0  0  0  0  0
    0.3351   -0.9462    2.3885 C   0  0  0  0  0  0  0  0  0  0  0  0
    1.1027    0.0120    3.1630 C   0  0  0  0  0  0  0  0  0  0  0  0
    1.2742    1.1478    2.3112 C   0  0  0  0  0  0  0  0  0  0  0  0
    0.6587    0.9277    1.0774 O   0  0  0  0  0  0  0  0  0  0  0  0
    1.9660    2.2909    2.6990 C   0  0  0  0  0  0  0  0  0  0  0  0
    2.4995    2.2825    3.9862 C   0  0  0  0  0  0  0  0  0  0  0  0
    2.3443    1.1794    4.8403 C   0  0  0  0  0  0  0  0  0  0  0  0
    1.6500    0.0391    4.4436 C   0  0  0  0  0  0  0  0  0  0  0  0
    0.8479    0.1378   -1.3300 H   0  0  0  0  0  0  0  0  0  0  0  0
    1.1878   -1.6381   -0.9567 H   0  0  0  0  0  0  0  0  0  0  0  0
   -1.3380    0.5870   -2.9507 H   0  0  0  0  0  0  0  0  0  0  0  0
   -0.8795   -3.1203   -5.0072 H   0  0  0  0  0  0  0  0  0  0  0  0
   -2.8496   -2.2416    1.4044 H   0  0  0  0  0  0  0  0  0  0  0  0
   -3.0895   -2.7296   -0.3529 H   0  0  0  0  0  0  0  0  0  0  0  0
   -3.3434    0.0365    0.8641 H   0  0  0  0  0  0  0  0  0  0  0  0
   -3.6269   -0.4388   -0.8902 H   0  0  0  0  0  0  0  0  0  0  0  0
    0.0223   -1.9343    2.7183 H   0  0  0  0  0  0  0  0  0  0  0  0
    2.0810    3.1485    2.0244 H   0  0  0  0  0  0  0  0  0  0  0  0
    3.0564    3.1627    4.3422 H   0  0  0  0  0  0  0  0  0  0  0  0
    2.7840    1.2203    5.8483 H   0  0  0  0  0  0  0  0  0  0  0  0
    1.5357   -0.8184    5.1212 H   0  0  0  0  0  0  0  0  0  0  0  0
  1  2  1  0  0  0  0
  1  7  1  0  0  0  0
  1 21  1  0  0  0  0
  1 22  1  0  0  0  0
  2  3  1  0  0  0  0
  2  6  1  0  0  0  0
  3  4  2  0  0  0  0
  3 23  1  0  0  0  0
  4  5  1  0  0  0  0
  5  6  2  0  0  0  0
  5 24  1  0  0  0  0
  7  8  1  0  0  0  0
  7 11  1  0  0  0  0
  7 12  1  0  0  0  0
  8  9  1  0  0  0  0
  9 10  1  0  0  0  0
  9 25  1  0  0  0  0
  9 26  1  0  0  0  0
 10 11  1  0  0  0  0
 10 27  1  0  0  0  0
 10 28  1  0  0  0  0
 12 13  2  0  0  0  0
 12 16  1  0  0  0  0
 13 14  1  0  0  0  0
 13 29  1  0  0  0  0
 14 15  2  0  0  0  0
 14 20  1  0  0  0  0
 15 16  1  0  0  0  0
 15 17  1  0  0  0  0
 17 18  2  0  0  0  0
 17 30  1  0  0  0  0
 18 19  1  0  0  0  0
 18 31  1  0  0  0  0
 19 20  2  0  0  0  0
 19 32  1  0  0  0  0
 20 33  1  0  0  0  0
M  END
