./098532-66-2.hin
 OpenBabel10051109203D

 39 42  0  0  0  0  0  0  0  0999 V2000
   -3.2934   -0.9786   -0.8183 C   0  0  0  0  0  0  0  0  0  0  0  0
   -3.0904    0.4584   -0.3278 C   0  0  0  0  0  0  0  0  0  0  0  0
   -2.1537    0.3384    0.7636 O   0  0  0  0  0  0  0  0  0  0  0  0
   -1.5850   -0.9660    0.7864 C   0  0  0  0  0  0  0  0  0  0  0  0
   -2.4300   -1.7888   -0.0096 O   0  0  0  0  0  0  0  0  0  0  0  0
   -1.5253   -1.4927    2.2465 C   0  0  0  0  0  0  0  0  0  0  0  0
   -2.7941   -1.5208    2.9293 N   0  0  0  0  0  0  0  0  0  0  0  0
   -3.5491   -0.3833    3.2999 C   0  0  0  0  0  0  0  0  0  0  0  0
   -4.6976   -0.7826    3.8808 N   0  0  0  0  0  0  0  0  0  0  0  0
   -4.6153   -2.1888    3.8391 C   0  0  0  0  0  0  0  0  0  0  0  0
   -3.4703   -2.6394    3.2566 N   0  0  0  0  0  0  0  0  0  0  0  0
   -0.1953   -0.9587    0.2253 C   0  0  0  0  0  0  0  0  0  0  0  0
    0.4157   -1.6731   -0.7770 C   0  0  0  0  0  0  0  0  0  0  0  0
    1.7930   -1.2171   -0.8327 C   0  0  0  0  0  0  0  0  0  0  0  0
    2.8982   -1.5408   -1.6131 C   0  0  0  0  0  0  0  0  0  0  0  0
    4.0924   -0.8620   -1.3607 C   0  0  0  0  0  0  0  0  0  0  0  0
    4.2041    0.1187   -0.3593 C   0  0  0  0  0  0  0  0  0  0  0  0
    3.1052    0.4565    0.4349 C   0  0  0  0  0  0  0  0  0  0  0  0
    1.9106   -0.2195    0.1856 C   0  0  0  0  0  0  0  0  0  0  0  0
    0.6932   -0.0529    0.8450 O   0  0  0  0  0  0  0  0  0  0  0  0
    3.2390    1.6346    1.6392 Cl  0  0  0  0  0  0  0  0  0  0  0  0
    5.4663   -1.2287   -2.2936 Cl  0  0  0  0  0  0  0  0  0  0  0  0
   -4.3630    1.1061    0.1898 C   0  0  0  0  0  0  0  0  0  0  0  0
   -4.1490    2.5596    0.5227 C   0  0  0  0  0  0  0  0  0  0  0  0
   -2.9887   -1.1140   -1.8858 H   0  0  0  0  0  0  0  0  0  0  0  0
   -4.3317   -1.3608   -0.6511 H   0  0  0  0  0  0  0  0  0  0  0  0
   -2.6004    1.1008   -1.1079 H   0  0  0  0  0  0  0  0  0  0  0  0
   -1.0858   -2.5295    2.2117 H   0  0  0  0  0  0  0  0  0  0  0  0
   -0.8355   -0.8012    2.8109 H   0  0  0  0  0  0  0  0  0  0  0  0
   -3.2090    0.6409    3.1062 H   0  0  0  0  0  0  0  0  0  0  0  0
   -5.3968   -2.8405    4.2419 H   0  0  0  0  0  0  0  0  0  0  0  0
   -0.0323   -2.4375   -1.4084 H   0  0  0  0  0  0  0  0  0  0  0  0
    2.8300   -2.3057   -2.4004 H   0  0  0  0  0  0  0  0  0  0  0  0
    5.1687    0.6272   -0.1983 H   0  0  0  0  0  0  0  0  0  0  0  0
   -5.1540    1.0028   -0.5984 H   0  0  0  0  0  0  0  0  0  0  0  0
   -4.7112    0.5552    1.1047 H   0  0  0  0  0  0  0  0  0  0  0  0
   -5.0883    3.0027    0.9329 H   0  0  0  0  0  0  0  0  0  0  0  0
   -3.3397    2.6647    1.2863 H   0  0  0  0  0  0  0  0  0  0  0  0
   -3.8517    3.1365   -0.3862 H   0  0  0  0  0  0  0  0  0  0  0  0
  1  2  1  0  0  0  0
  1  5  1  0  0  0  0
  1 25  1  0  0  0  0
  1 26  1  0  0  0  0
  2  3  1  0  0  0  0
  2 23  1  0  0  0  0
  2 27  1  0  0  0  0
  3  4  1  0  0  0  0
  4  5  1  0  0  0  0
  4  6  1  0  0  0  0
  4 12  1  0  0  0  0
  6  7  1  0  0  0  0
  6 28  1  0  0  0  0
  6 29  1  0  0  0  0
  7  8  1  0  0  0  0
  7 11  1  0  0  0  0
  8  9  2  0  0  0  0
  8 30  1  0  0  0  0
  9 10  1  0  0  0  0
 10 11  2  0  0  0  0
 10 31  1  0  0  0  0
 12 13  2  0  0  0  0
 12 20  1  0  0  0  0
 13 14  1  0  0  0  0
 13 32  1  0  0  0  0
 14 15  2  0  0  0  0
 14 19  1  0  0  0  0
 15 16  1  0  0  0  0
 15 33  1  0  0  0  0
 16 17  2  0  0  0  0
 16 22  1  0  0  0  0
 17 18  1  0  0  0  0
 17 34  1  0  0  0  0
 18 19  2  0  0  0  0
 18 21  1  0  0  0  0
 19 20  1  0  0  0  0
 23 24  1  0  0  0  0
 23 35  1  0  0  0  0
 23 36  1  0  0  0  0
 24 37  1  0  0  0  0
 24 38  1  0  0  0  0
 24 39  1  0  0  0  0
M  END
