./098532-69-5.hin
 OpenBabel10051109203D

 41 44  0  0  0  0  0  0  0  0999 V2000
    3.8334   -4.7237    0.5869 C   0  0  0  0  0  0  0  0  0  0  0  0
    2.4326   -4.7488    0.3386 O   0  0  0  0  0  0  0  0  0  0  0  0
    1.8165   -3.5196    0.1900 C   0  0  0  0  0  0  0  0  0  0  0  0
    2.4861   -2.2974    0.2793 C   0  0  0  0  0  0  0  0  0  0  0  0
    1.7296   -1.1380    0.1074 C   0  0  0  0  0  0  0  0  0  0  0  0
    0.3328   -1.2328   -0.1484 C   0  0  0  0  0  0  0  0  0  0  0  0
   -0.2316    0.0374   -0.2879 O   0  0  0  0  0  0  0  0  0  0  0  0
    0.8372    0.9385   -0.1133 C   0  0  0  0  0  0  0  0  0  0  0  0
    2.0244    0.2837    0.1236 C   0  0  0  0  0  0  0  0  0  0  0  0
    0.4698    2.3856   -0.2276 C   0  0  0  0  0  0  0  0  0  0  0  0
   -0.5796    2.6184   -1.3590 C   0  0  0  0  0  0  0  0  0  0  0  0
   -1.9568    2.6394   -0.9406 N   0  0  0  0  0  0  0  0  0  0  0  0
   -2.7688    1.5063   -0.6897 C   0  0  0  0  0  0  0  0  0  0  0  0
   -3.9713    1.9139   -0.2414 N   0  0  0  0  0  0  0  0  0  0  0  0
   -3.8534    3.3186   -0.2086 C   0  0  0  0  0  0  0  0  0  0  0  0
   -2.6342    3.7608   -0.6178 N   0  0  0  0  0  0  0  0  0  0  0  0
    1.6308    3.1448   -0.5747 O   0  0  0  0  0  0  0  0  0  0  0  0
    2.0521    3.9570    0.5275 C   0  0  0  0  0  0  0  0  0  0  0  0
    0.9719    3.7924    1.5891 C   0  0  0  0  0  0  0  0  0  0  0  0
    0.0170    2.8854    1.0258 O   0  0  0  0  0  0  0  0  0  0  0  0
   -0.3336   -2.4641   -0.2387 C   0  0  0  0  0  0  0  0  0  0  0  0
   -1.6833   -2.4223   -0.5045 O   0  0  0  0  0  0  0  0  0  0  0  0
   -2.3591   -3.6775   -0.4875 C   0  0  0  0  0  0  0  0  0  0  0  0
    0.4262   -3.6192   -0.0650 C   0  0  0  0  0  0  0  0  0  0  0  0
    4.1021   -5.8080    0.6640 H   0  0  0  0  0  0  0  0  0  0  0  0
    4.3762   -4.2422   -0.2625 H   0  0  0  0  0  0  0  0  0  0  0  0
    4.0546   -4.1935    1.5449 H   0  0  0  0  0  0  0  0  0  0  0  0
    3.5628   -2.2333    0.4770 H   0  0  0  0  0  0  0  0  0  0  0  0
    3.0027    0.7305    0.2805 H   0  0  0  0  0  0  0  0  0  0  0  0
   -0.3203    3.5982   -1.8547 H   0  0  0  0  0  0  0  0  0  0  0  0
   -0.4620    1.7821   -2.1049 H   0  0  0  0  0  0  0  0  0  0  0  0
   -2.4250    0.4750   -0.8445 H   0  0  0  0  0  0  0  0  0  0  0  0
   -4.6688    3.9731    0.1130 H   0  0  0  0  0  0  0  0  0  0  0  0
    2.1355    5.0030    0.1395 H   0  0  0  0  0  0  0  0  0  0  0  0
    3.0519    3.5820    0.8617 H   0  0  0  0  0  0  0  0  0  0  0  0
    0.4198    4.7407    1.8087 H   0  0  0  0  0  0  0  0  0  0  0  0
    1.3557    3.3343    2.5349 H   0  0  0  0  0  0  0  0  0  0  0  0
   -3.4273   -3.3953   -0.6695 H   0  0  0  0  0  0  0  0  0  0  0  0
   -1.9775   -4.3368   -1.3044 H   0  0  0  0  0  0  0  0  0  0  0  0
   -2.2432   -4.1745    0.5059 H   0  0  0  0  0  0  0  0  0  0  0  0
   -0.0275   -4.6182   -0.1204 H   0  0  0  0  0  0  0  0  0  0  0  0
  1  2  1  0  0  0  0
  1 25  1  0  0  0  0
  1 26  1  0  0  0  0
  1 27  1  0  0  0  0
  2  3  1  0  0  0  0
  3  4  2  0  0  0  0
  3 24  1  0  0  0  0
  4  5  1  0  0  0  0
  4 28  1  0  0  0  0
  5  6  2  0  0  0  0
  5  9  1  0  0  0  0
  6  7  1  0  0  0  0
  6 21  1  0  0  0  0
  7  8  1  0  0  0  0
  8  9  2  0  0  0  0
  8 10  1  0  0  0  0
  9 29  1  0  0  0  0
 10 11  1  0  0  0  0
 10 17  1  0  0  0  0
 10 20  1  0  0  0  0
 11 12  1  0  0  0  0
 11 30  1  0  0  0  0
 11 31  1  0  0  0  0
 12 13  1  0  0  0  0
 12 16  1  0  0  0  0
 13 14  2  0  0  0  0
 13 32  1  0  0  0  0
 14 15  1  0  0  0  0
 15 16  2  0  0  0  0
 15 33  1  0  0  0  0
 17 18  1  0  0  0  0
 18 19  1  0  0  0  0
 18 34  1  0  0  0  0
 18 35  1  0  0  0  0
 19 20  1  0  0  0  0
 19 36  1  0  0  0  0
 19 37  1  0  0  0  0
 21 22  1  0  0  0  0
 21 24  2  0  0  0  0
 22 23  1  0  0  0  0
 23 38  1  0  0  0  0
 23 39  1  0  0  0  0
 23 40  1  0  0  0  0
 24 41  1  0  0  0  0
M  END
