./098532-70-8.hin
 OpenBabel10051109203D

 40 43  0  0  0  0  0  0  0  0999 V2000
    0.2015   -1.0104   -3.5865 N   0  0  0  0  0  0  0  0  0  0  0  0
    0.7118   -2.0868   -4.2156 N   0  0  0  0  0  0  0  0  0  0  0  0
   -0.1264   -2.2974   -5.2677 C   0  0  0  0  0  0  0  0  0  0  0  0
   -1.1888   -1.3729   -5.3216 N   0  0  0  0  0  0  0  0  0  0  0  0
   -0.9675   -0.5782   -4.2564 C   0  0  0  0  0  0  0  0  0  0  0  0
    0.7396   -0.4206   -2.3869 C   0  0  0  0  0  0  0  0  0  0  0  0
   -0.1187   -0.6387   -1.1115 C   0  0  0  0  0  0  0  0  0  0  0  0
   -0.1997   -2.0256   -0.8053 O   0  0  0  0  0  0  0  0  0  0  0  0
   -1.5501   -2.3841   -0.4552 C   0  0  0  0  0  0  0  0  0  0  0  0
   -2.3835   -1.1413   -0.7748 C   0  0  0  0  0  0  0  0  0  0  0  0
   -1.4556   -0.1949   -1.3271 O   0  0  0  0  0  0  0  0  0  0  0  0
    0.5016    0.1244    0.0197 C   0  0  0  0  0  0  0  0  0  0  0  0
    1.8161   -0.2675    0.3526 O   0  0  0  0  0  0  0  0  0  0  0  0
    2.1941    0.5631    1.4071 C   0  0  0  0  0  0  0  0  0  0  0  0
    1.1351    1.4678    1.7325 C   0  0  0  0  0  0  0  0  0  0  0  0
    0.0559    1.1539    0.8135 C   0  0  0  0  0  0  0  0  0  0  0  0
    1.3053    2.3890    2.7611 C   0  0  0  0  0  0  0  0  0  0  0  0
    2.5256    2.3853    3.4402 C   0  0  0  0  0  0  0  0  0  0  0  0
    3.5641    1.4937    3.1180 C   0  0  0  0  0  0  0  0  0  0  0  0
    3.4119    0.5621    2.0877 C   0  0  0  0  0  0  0  0  0  0  0  0
    4.6595   -0.5091    1.6996 Cl  0  0  0  0  0  0  0  0  0  0  0  0
    2.7729    3.4958    4.7043 Cl  0  0  0  0  0  0  0  0  0  0  0  0
   -1.9218   -3.6130   -1.2816 C   0  0  0  0  0  0  0  0  0  0  0  0
   -3.0972   -4.1514   -0.6801 O   0  0  0  0  0  0  0  0  0  0  0  0
   -3.4945   -5.3763   -1.2755 C   0  0  0  0  0  0  0  0  0  0  0  0
    0.0038   -3.0944   -6.0064 H   0  0  0  0  0  0  0  0  0  0  0  0
   -1.5692    0.2691   -3.9102 H   0  0  0  0  0  0  0  0  0  0  0  0
    0.8160    0.6913   -2.5512 H   0  0  0  0  0  0  0  0  0  0  0  0
    1.7609   -0.8472   -2.1665 H   0  0  0  0  0  0  0  0  0  0  0  0
   -1.5611   -2.6312    0.6395 H   0  0  0  0  0  0  0  0  0  0  0  0
   -2.8388   -0.6861    0.1395 H   0  0  0  0  0  0  0  0  0  0  0  0
   -3.1607   -1.3189   -1.5592 H   0  0  0  0  0  0  0  0  0  0  0  0
   -0.9117    1.6488    0.7698 H   0  0  0  0  0  0  0  0  0  0  0  0
    0.5043    3.0938    3.0274 H   0  0  0  0  0  0  0  0  0  0  0  0
    4.5093    1.5290    3.6842 H   0  0  0  0  0  0  0  0  0  0  0  0
   -2.1318   -3.3383   -2.3482 H   0  0  0  0  0  0  0  0  0  0  0  0
   -1.0863   -4.3615   -1.2463 H   0  0  0  0  0  0  0  0  0  0  0  0
   -4.4163   -5.6697   -0.7137 H   0  0  0  0  0  0  0  0  0  0  0  0
   -3.7234   -5.2302   -2.3599 H   0  0  0  0  0  0  0  0  0  0  0  0
   -2.6964   -6.1497   -1.1540 H   0  0  0  0  0  0  0  0  0  0  0  0
  1  2  1  0  0  0  0
  1  5  1  0  0  0  0
  1  6  1  0  0  0  0
  2  3  2  0  0  0  0
  3  4  1  0  0  0  0
  3 26  1  0  0  0  0
  4  5  2  0  0  0  0
  5 27  1  0  0  0  0
  6  7  1  0  0  0  0
  6 28  1  0  0  0  0
  6 29  1  0  0  0  0
  7  8  1  0  0  0  0
  7 11  1  0  0  0  0
  7 12  1  0  0  0  0
  8  9  1  0  0  0  0
  9 10  1  0  0  0  0
  9 23  1  0  0  0  0
  9 30  1  0  0  0  0
 10 11  1  0  0  0  0
 10 31  1  0  0  0  0
 10 32  1  0  0  0  0
 12 13  1  0  0  0  0
 12 16  2  0  0  0  0
 13 14  1  0  0  0  0
 14 15  2  0  0  0  0
 14 20  1  0  0  0  0
 15 16  1  0  0  0  0
 15 17  1  0  0  0  0
 16 33  1  0  0  0  0
 17 18  2  0  0  0  0
 17 34  1  0  0  0  0
 18 19  1  0  0  0  0
 18 22  1  0  0  0  0
 19 20  2  0  0  0  0
 19 35  1  0  0  0  0
 20 21  1  0  0  0  0
 23 24  1  0  0  0  0
 23 36  1  0  0  0  0
 23 37  1  0  0  0  0
 24 25  1  0  0  0  0
 25 38  1  0  0  0  0
 25 39  1  0  0  0  0
 25 40  1  0  0  0  0
M  END
