./098532-72-0.hin
 OpenBabel10051109203D

 47 51  0  0  0  0  0  0  0  0999 V2000
    1.1459    0.3416   -2.8416 N   0  0  0  0  0  0  0  0  0  0  0  0
    1.5412   -0.5764   -3.7447 N   0  0  0  0  0  0  0  0  0  0  0  0
    0.4578   -0.7519   -4.5507 C   0  0  0  0  0  0  0  0  0  0  0  0
   -0.6470    0.0357   -4.1705 N   0  0  0  0  0  0  0  0  0  0  0  0
   -0.1966    0.7095   -3.0940 C   0  0  0  0  0  0  0  0  0  0  0  0
    1.9512    0.8328   -1.7518 C   0  0  0  0  0  0  0  0  0  0  0  0
    1.5360    0.3161   -0.3480 C   0  0  0  0  0  0  0  0  0  0  0  0
    1.7064   -1.0956   -0.2673 O   0  0  0  0  0  0  0  0  0  0  0  0
    0.5678   -1.7025    0.3743 C   0  0  0  0  0  0  0  0  0  0  0  0
   -0.4554   -0.5720    0.5093 C   0  0  0  0  0  0  0  0  0  0  0  0
    0.1487    0.5613   -0.1282 O   0  0  0  0  0  0  0  0  0  0  0  0
    2.3793    0.9950    0.6855 C   0  0  0  0  0  0  0  0  0  0  0  0
    2.2869    2.4046    0.6999 O   0  0  0  0  0  0  0  0  0  0  0  0
    3.1490    2.8201    1.7167 C   0  0  0  0  0  0  0  0  0  0  0  0
    3.7750    1.6908    2.3314 C   0  0  0  0  0  0  0  0  0  0  0  0
    3.2528    0.5275    1.6378 C   0  0  0  0  0  0  0  0  0  0  0  0
    4.6756    1.9012    3.3730 C   0  0  0  0  0  0  0  0  0  0  0  0
    4.9284    3.2113    3.7718 C   0  0  0  0  0  0  0  0  0  0  0  0
    4.3014    4.3043    3.1530 C   0  0  0  0  0  0  0  0  0  0  0  0
    3.3950    4.1321    2.1089 C   0  0  0  0  0  0  0  0  0  0  0  0
    0.1193   -2.8661   -0.5097 C   0  0  0  0  0  0  0  0  0  0  0  0
   -0.3649   -3.8619    0.3978 O   0  0  0  0  0  0  0  0  0  0  0  0
   -0.6850   -5.0833   -0.1686 C   0  0  0  0  0  0  0  0  0  0  0  0
   -0.6973   -5.3428   -1.5435 C   0  0  0  0  0  0  0  0  0  0  0  0
   -1.0539   -6.6169   -1.9880 C   0  0  0  0  0  0  0  0  0  0  0  0
   -1.3944   -7.6155   -1.0790 C   0  0  0  0  0  0  0  0  0  0  0  0
   -1.3810   -7.3454    0.2916 C   0  0  0  0  0  0  0  0  0  0  0  0
   -1.0275   -6.0851    0.7593 C   0  0  0  0  0  0  0  0  0  0  0  0
    0.4365   -1.4255   -5.4129 H   0  0  0  0  0  0  0  0  0  0  0  0
   -0.7410    1.4264   -2.4692 H   0  0  0  0  0  0  0  0  0  0  0  0
    1.8571    1.9567   -1.7250 H   0  0  0  0  0  0  0  0  0  0  0  0
    3.0284    0.5415   -1.9083 H   0  0  0  0  0  0  0  0  0  0  0  0
    0.9102   -2.0826    1.3745 H   0  0  0  0  0  0  0  0  0  0  0  0
   -0.6544   -0.3070    1.5777 H   0  0  0  0  0  0  0  0  0  0  0  0
   -1.4137   -0.7649   -0.0343 H   0  0  0  0  0  0  0  0  0  0  0  0
    3.5151   -0.5093    1.8362 H   0  0  0  0  0  0  0  0  0  0  0  0
    5.1719    1.0535    3.8657 H   0  0  0  0  0  0  0  0  0  0  0  0
    5.6371    3.3986    4.5926 H   0  0  0  0  0  0  0  0  0  0  0  0
    4.5313    5.3228    3.5017 H   0  0  0  0  0  0  0  0  0  0  0  0
    2.8989    4.9798    1.6200 H   0  0  0  0  0  0  0  0  0  0  0  0
   -0.7030   -2.5632   -1.2079 H   0  0  0  0  0  0  0  0  0  0  0  0
    0.9928   -3.2617   -1.0932 H   0  0  0  0  0  0  0  0  0  0  0  0
   -0.4341   -4.5654   -2.2736 H   0  0  0  0  0  0  0  0  0  0  0  0
   -1.0649   -6.8279   -3.0679 H   0  0  0  0  0  0  0  0  0  0  0  0
   -1.6739   -8.6161   -1.4382 H   0  0  0  0  0  0  0  0  0  0  0  0
   -1.6505   -8.1349    1.0092 H   0  0  0  0  0  0  0  0  0  0  0  0
   -1.0118   -5.8568    1.8339 H   0  0  0  0  0  0  0  0  0  0  0  0
  1  2  1  0  0  0  0
  1  5  1  0  0  0  0
  1  6  1  0  0  0  0
  2  3  2  0  0  0  0
  3  4  1  0  0  0  0
  3 29  1  0  0  0  0
  4  5  2  0  0  0  0
  5 30  1  0  0  0  0
  6  7  1  0  0  0  0
  6 31  1  0  0  0  0
  6 32  1  0  0  0  0
  7  8  1  0  0  0  0
  7 11  1  0  0  0  0
  7 12  1  0  0  0  0
  8  9  1  0  0  0  0
  9 10  1  0  0  0  0
  9 21  1  0  0  0  0
  9 33  1  0  0  0  0
 10 11  1  0  0  0  0
 10 34  1  0  0  0  0
 10 35  1  0  0  0  0
 12 13  1  0  0  0  0
 12 16  2  0  0  0  0
 13 14  1  0  0  0  0
 14 15  2  0  0  0  0
 14 20  1  0  0  0  0
 15 16  1  0  0  0  0
 15 17  1  0  0  0  0
 16 36  1  0  0  0  0
 17 18  2  0  0  0  0
 17 37  1  0  0  0  0
 18 19  1  0  0  0  0
 18 38  1  0  0  0  0
 19 20  2  0  0  0  0
 19 39  1  0  0  0  0
 20 40  1  0  0  0  0
 21 22  1  0  0  0  0
 21 41  1  0  0  0  0
 21 42  1  0  0  0  0
 22 23  1  0  0  0  0
 23 24  2  0  0  0  0
 23 28  1  0  0  0  0
 24 25  1  0  0  0  0
 24 43  1  0  0  0  0
 25 26  2  0  0  0  0
 25 44  1  0  0  0  0
 26 27  1  0  0  0  0
 26 45  1  0  0  0  0
 27 28  2  0  0  0  0
 27 46  1  0  0  0  0
 28 47  1  0  0  0  0
M  END
