./098532-74-2.hin
 OpenBabel10051109203D

 39 42  0  0  0  0  0  0  0  0999 V2000
   -0.8076   -1.5122    2.8320 C   0  0  0  0  0  0  0  0  0  0  0  0
   -1.6152   -1.4827    1.5556 C   0  0  0  0  0  0  0  0  0  0  0  0
   -1.0775   -2.4373    0.4736 C   0  0  0  0  0  0  0  0  0  0  0  0
   -0.7884   -1.5839   -0.6540 O   0  0  0  0  0  0  0  0  0  0  0  0
   -0.7911   -0.2209   -0.2475 C   0  0  0  0  0  0  0  0  0  0  0  0
   -1.5450   -0.1734    0.9585 O   0  0  0  0  0  0  0  0  0  0  0  0
   -1.4711    0.6471   -1.3428 C   0  0  0  0  0  0  0  0  0  0  0  0
   -2.8339    0.2832   -1.6411 N   0  0  0  0  0  0  0  0  0  0  0  0
   -3.2487   -0.9490   -2.1980 C   0  0  0  0  0  0  0  0  0  0  0  0
   -4.5931   -0.9652   -2.2895 N   0  0  0  0  0  0  0  0  0  0  0  0
   -4.9731    0.2850   -1.7621 C   0  0  0  0  0  0  0  0  0  0  0  0
   -3.9132    1.0390   -1.3597 N   0  0  0  0  0  0  0  0  0  0  0  0
    0.5964    0.2967   -0.0285 C   0  0  0  0  0  0  0  0  0  0  0  0
    1.0747    1.5312    0.3444 C   0  0  0  0  0  0  0  0  0  0  0  0
    2.5213    1.4221    0.3864 C   0  0  0  0  0  0  0  0  0  0  0  0
    3.5721    2.2874    0.6824 C   0  0  0  0  0  0  0  0  0  0  0  0
    4.8726    1.7951    0.6083 C   0  0  0  0  0  0  0  0  0  0  0  0
    5.1381    0.4650    0.2462 C   0  0  0  0  0  0  0  0  0  0  0  0
    4.1128   -0.4284   -0.0564 C   0  0  0  0  0  0  0  0  0  0  0  0
    2.8165    0.0714    0.0212 C   0  0  0  0  0  0  0  0  0  0  0  0
    1.6377   -0.6321   -0.2344 O   0  0  0  0  0  0  0  0  0  0  0  0
   -2.0774   -3.4791    0.0307 C   0  0  0  0  0  0  0  0  0  0  0  0
    0.2698   -1.3069    2.6225 H   0  0  0  0  0  0  0  0  0  0  0  0
   -1.1842   -0.7327    3.5372 H   0  0  0  0  0  0  0  0  0  0  0  0
   -0.9024   -2.5155    3.3112 H   0  0  0  0  0  0  0  0  0  0  0  0
   -2.7067   -1.6525    1.7626 H   0  0  0  0  0  0  0  0  0  0  0  0
   -0.1054   -2.9072    0.7843 H   0  0  0  0  0  0  0  0  0  0  0  0
   -1.4262    1.7186   -0.9973 H   0  0  0  0  0  0  0  0  0  0  0  0
   -0.8637    0.5211   -2.2840 H   0  0  0  0  0  0  0  0  0  0  0  0
   -2.5411   -1.7378   -2.4789 H   0  0  0  0  0  0  0  0  0  0  0  0
   -6.0167    0.6065   -1.6924 H   0  0  0  0  0  0  0  0  0  0  0  0
    0.4973    2.4227    0.5774 H   0  0  0  0  0  0  0  0  0  0  0  0
    3.3770    3.3307    0.9668 H   0  0  0  0  0  0  0  0  0  0  0  0
    5.7166    2.4629    0.8383 H   0  0  0  0  0  0  0  0  0  0  0  0
    6.1822    0.1196    0.2001 H   0  0  0  0  0  0  0  0  0  0  0  0
    4.3097   -1.4694   -0.3418 H   0  0  0  0  0  0  0  0  0  0  0  0
   -3.0037   -2.9933   -0.3629 H   0  0  0  0  0  0  0  0  0  0  0  0
   -1.6378   -4.1086   -0.7799 H   0  0  0  0  0  0  0  0  0  0  0  0
   -2.3425   -4.1311    0.8966 H   0  0  0  0  0  0  0  0  0  0  0  0
  1  2  1  0  0  0  0
  1 23  1  0  0  0  0
  1 24  1  0  0  0  0
  1 25  1  0  0  0  0
  2  3  1  0  0  0  0
  2  6  1  0  0  0  0
  2 26  1  0  0  0  0
  3  4  1  0  0  0  0
  3 22  1  0  0  0  0
  3 27  1  0  0  0  0
  4  5  1  0  0  0  0
  5  6  1  0  0  0  0
  5  7  1  0  0  0  0
  5 13  1  0  0  0  0
  7  8  1  0  0  0  0
  7 28  1  0  0  0  0
  7 29  1  0  0  0  0
  8  9  1  0  0  0  0
  8 12  1  0  0  0  0
  9 10  2  0  0  0  0
  9 30  1  0  0  0  0
 10 11  1  0  0  0  0
 11 12  2  0  0  0  0
 11 31  1  0  0  0  0
 13 14  2  0  0  0  0
 13 21  1  0  0  0  0
 14 15  1  0  0  0  0
 14 32  1  0  0  0  0
 15 16  2  0  0  0  0
 15 20  1  0  0  0  0
 16 17  1  0  0  0  0
 16 33  1  0  0  0  0
 17 18  2  0  0  0  0
 17 34  1  0  0  0  0
 18 19  1  0  0  0  0
 18 35  1  0  0  0  0
 19 20  2  0  0  0  0
 19 36  1  0  0  0  0
 20 21  1  0  0  0  0
 22 37  1  0  0  0  0
 22 38  1  0  0  0  0
 22 39  1  0  0  0  0
M  END
