./098532-75-3.hin
 OpenBabel10051109203D

 42 45  0  0  0  0  0  0  0  0999 V2000
   -0.2640    2.5645    2.4190 C   0  0  0  0  0  0  0  0  0  0  0  0
   -1.3821    1.8745    1.6570 C   0  0  0  0  0  0  0  0  0  0  0  0
   -2.7207    2.4764    2.0421 C   0  0  0  0  0  0  0  0  0  0  0  0
   -1.3813    0.3766    1.9637 C   0  0  0  0  0  0  0  0  0  0  0  0
   -0.2158   -0.2482    1.4399 O   0  0  0  0  0  0  0  0  0  0  0  0
   -0.0098   -0.1270    0.0437 C   0  0  0  0  0  0  0  0  0  0  0  0
   -0.8939   -1.1378   -0.7543 C   0  0  0  0  0  0  0  0  0  0  0  0
   -2.1238   -0.6422   -1.3182 N   0  0  0  0  0  0  0  0  0  0  0  0
   -2.2262    0.1291   -2.4994 C   0  0  0  0  0  0  0  0  0  0  0  0
   -3.5264    0.3639   -2.7679 N   0  0  0  0  0  0  0  0  0  0  0  0
   -4.2010   -0.2884   -1.7184 C   0  0  0  0  0  0  0  0  0  0  0  0
   -3.3570   -0.8977   -0.8398 N   0  0  0  0  0  0  0  0  0  0  0  0
   -0.1089    1.2246   -0.3672 O   0  0  0  0  0  0  0  0  0  0  0  0
   -1.1677    2.0246    0.1509 C   0  0  0  0  0  0  0  0  0  0  0  0
    1.4291   -0.5107   -0.1886 C   0  0  0  0  0  0  0  0  0  0  0  0
    2.5510    0.2153   -0.5036 C   0  0  0  0  0  0  0  0  0  0  0  0
    3.6474   -0.7331   -0.5923 C   0  0  0  0  0  0  0  0  0  0  0  0
    3.0760   -2.0126   -0.3051 C   0  0  0  0  0  0  0  0  0  0  0  0
    1.7071   -1.8898   -0.0558 O   0  0  0  0  0  0  0  0  0  0  0  0
    3.8174   -3.1893   -0.2875 C   0  0  0  0  0  0  0  0  0  0  0  0
    5.1765   -3.0668   -0.5707 C   0  0  0  0  0  0  0  0  0  0  0  0
    5.7594   -1.8228   -0.8569 C   0  0  0  0  0  0  0  0  0  0  0  0
    5.0091   -0.6493   -0.8710 C   0  0  0  0  0  0  0  0  0  0  0  0
   -0.2462    3.6545    2.1798 H   0  0  0  0  0  0  0  0  0  0  0  0
    0.7176    2.1131    2.1345 H   0  0  0  0  0  0  0  0  0  0  0  0
   -0.4121    2.4413    3.5184 H   0  0  0  0  0  0  0  0  0  0  0  0
   -2.7423    3.5618    1.7811 H   0  0  0  0  0  0  0  0  0  0  0  0
   -3.5552    1.9632    1.5061 H   0  0  0  0  0  0  0  0  0  0  0  0
   -2.8845    2.3702    3.1414 H   0  0  0  0  0  0  0  0  0  0  0  0
   -2.3002   -0.1169    1.5539 H   0  0  0  0  0  0  0  0  0  0  0  0
   -1.3007    0.1860    3.0678 H   0  0  0  0  0  0  0  0  0  0  0  0
   -0.2739   -1.5258   -1.6137 H   0  0  0  0  0  0  0  0  0  0  0  0
   -1.1079   -1.9938   -0.0498 H   0  0  0  0  0  0  0  0  0  0  0  0
   -1.3546    0.4705   -3.0677 H   0  0  0  0  0  0  0  0  0  0  0  0
   -5.2921   -0.3021   -1.6319 H   0  0  0  0  0  0  0  0  0  0  0  0
   -2.1155    1.7943   -0.4024 H   0  0  0  0  0  0  0  0  0  0  0  0
   -0.8318    3.0680   -0.1037 H   0  0  0  0  0  0  0  0  0  0  0  0
    2.6122    1.2896   -0.6612 H   0  0  0  0  0  0  0  0  0  0  0  0
    3.3531   -4.1568   -0.0595 H   0  0  0  0  0  0  0  0  0  0  0  0
    5.8083   -3.9682   -0.5688 H   0  0  0  0  0  0  0  0  0  0  0  0
    6.8373   -1.7768   -1.0740 H   0  0  0  0  0  0  0  0  0  0  0  0
    5.4776    0.3192   -1.0950 H   0  0  0  0  0  0  0  0  0  0  0  0
  1  2  1  0  0  0  0
  1 24  1  0  0  0  0
  1 25  1  0  0  0  0
  1 26  1  0  0  0  0
  2  3  1  0  0  0  0
  2  4  1  0  0  0  0
  2 14  1  0  0  0  0
  3 27  1  0  0  0  0
  3 28  1  0  0  0  0
  3 29  1  0  0  0  0
  4  5  1  0  0  0  0
  4 30  1  0  0  0  0
  4 31  1  0  0  0  0
  5  6  1  0  0  0  0
  6  7  1  0  0  0  0
  6 13  1  0  0  0  0
  6 15  1  0  0  0  0
  7  8  1  0  0  0  0
  7 32  1  0  0  0  0
  7 33  1  0  0  0  0
  8  9  1  0  0  0  0
  8 12  1  0  0  0  0
  9 10  2  0  0  0  0
  9 34  1  0  0  0  0
 10 11  1  0  0  0  0
 11 12  2  0  0  0  0
 11 35  1  0  0  0  0
 13 14  1  0  0  0  0
 14 36  1  0  0  0  0
 14 37  1  0  0  0  0
 15 16  2  0  0  0  0
 15 19  1  0  0  0  0
 16 17  1  0  0  0  0
 16 38  1  0  0  0  0
 17 18  2  0  0  0  0
 17 23  1  0  0  0  0
 18 19  1  0  0  0  0
 18 20  1  0  0  0  0
 20 21  2  0  0  0  0
 20 39  1  0  0  0  0
 21 22  1  0  0  0  0
 21 40  1  0  0  0  0
 22 23  2  0  0  0  0
 22 41  1  0  0  0  0
 23 42  1  0  0  0  0
M  END
