./098532-77-5.hin
 OpenBabel10051109203D

 42 45  0  0  0  0  0  0  0  0999 V2000
   -2.6509    1.0042   -3.0429 C   0  0  0  0  0  0  0  0  0  0  0  0
   -3.2654    1.1959   -1.6674 C   0  0  0  0  0  0  0  0  0  0  0  0
   -4.6895    1.7027   -1.8015 C   0  0  0  0  0  0  0  0  0  0  0  0
   -2.4399    2.1898   -0.8513 C   0  0  0  0  0  0  0  0  0  0  0  0
   -1.1531    1.6703   -0.5373 O   0  0  0  0  0  0  0  0  0  0  0  0
   -1.0999    0.4139    0.1149 C   0  0  0  0  0  0  0  0  0  0  0  0
   -1.2568    0.5503    1.6618 C   0  0  0  0  0  0  0  0  0  0  0  0
   -2.5978    0.5554    2.1889 N   0  0  0  0  0  0  0  0  0  0  0  0
   -3.3796   -0.5987    2.4333 C   0  0  0  0  0  0  0  0  0  0  0  0
   -4.5395   -0.2361    3.0163 N   0  0  0  0  0  0  0  0  0  0  0  0
   -4.4303    1.1640    3.1226 C   0  0  0  0  0  0  0  0  0  0  0  0
   -3.2574    1.6461    2.6264 N   0  0  0  0  0  0  0  0  0  0  0  0
   -1.9617   -0.5340   -0.4832 O   0  0  0  0  0  0  0  0  0  0  0  0
   -3.2604   -0.1231   -0.8965 C   0  0  0  0  0  0  0  0  0  0  0  0
    0.3003   -0.0939   -0.1354 C   0  0  0  0  0  0  0  0  0  0  0  0
    1.3655    0.4142   -0.8373 C   0  0  0  0  0  0  0  0  0  0  0  0
    2.4421   -0.5528   -0.7141 C   0  0  0  0  0  0  0  0  0  0  0  0
    1.9160   -1.6171    0.0843 C   0  0  0  0  0  0  0  0  0  0  0  0
    0.5967   -1.3461    0.4473 O   0  0  0  0  0  0  0  0  0  0  0  0
    2.6689   -2.7423    0.4189 C   0  0  0  0  0  0  0  0  0  0  0  0
    2.0431   -3.9974    1.3629 Cl  0  0  0  0  0  0  0  0  0  0  0  0
    3.9800   -2.7962   -0.0620 C   0  0  0  0  0  0  0  0  0  0  0  0
    4.5004   -1.7522   -0.8464 C   0  0  0  0  0  0  0  0  0  0  0  0
    6.1035   -1.8759   -1.4015 Cl  0  0  0  0  0  0  0  0  0  0  0  0
    3.7495   -0.6235   -1.1833 C   0  0  0  0  0  0  0  0  0  0  0  0
   -3.2461    0.2679   -3.6341 H   0  0  0  0  0  0  0  0  0  0  0  0
   -1.6059    0.6233   -2.9372 H   0  0  0  0  0  0  0  0  0  0  0  0
   -2.6287    1.9736   -3.5956 H   0  0  0  0  0  0  0  0  0  0  0  0
   -5.3077    0.9623   -2.3639 H   0  0  0  0  0  0  0  0  0  0  0  0
   -5.1500    1.8626   -0.7968 H   0  0  0  0  0  0  0  0  0  0  0  0
   -4.6994    2.6713   -2.3568 H   0  0  0  0  0  0  0  0  0  0  0  0
   -2.9762    2.4772    0.0892 H   0  0  0  0  0  0  0  0  0  0  0  0
   -2.1998    3.1094   -1.4513 H   0  0  0  0  0  0  0  0  0  0  0  0
   -0.7249   -0.3296    2.1288 H   0  0  0  0  0  0  0  0  0  0  0  0
   -0.7291    1.5038    1.9535 H   0  0  0  0  0  0  0  0  0  0  0  0
   -3.0538   -1.6085    2.1602 H   0  0  0  0  0  0  0  0  0  0  0  0
   -5.2129    1.7884    3.5652 H   0  0  0  0  0  0  0  0  0  0  0  0
   -3.9364   -0.0568   -0.0039 H   0  0  0  0  0  0  0  0  0  0  0  0
   -3.5889   -0.9753   -1.5538 H   0  0  0  0  0  0  0  0  0  0  0  0
    1.4034    1.3566   -1.3797 H   0  0  0  0  0  0  0  0  0  0  0  0
    4.6116   -3.6675    0.1766 H   0  0  0  0  0  0  0  0  0  0  0  0
    4.1737    0.1831   -1.7988 H   0  0  0  0  0  0  0  0  0  0  0  0
  1  2  1  0  0  0  0
  1 26  1  0  0  0  0
  1 27  1  0  0  0  0
  1 28  1  0  0  0  0
  2  3  1  0  0  0  0
  2  4  1  0  0  0  0
  2 14  1  0  0  0  0
  3 29  1  0  0  0  0
  3 30  1  0  0  0  0
  3 31  1  0  0  0  0
  4  5  1  0  0  0  0
  4 32  1  0  0  0  0
  4 33  1  0  0  0  0
  5  6  1  0  0  0  0
  6  7  1  0  0  0  0
  6 13  1  0  0  0  0
  6 15  1  0  0  0  0
  7  8  1  0  0  0  0
  7 34  1  0  0  0  0
  7 35  1  0  0  0  0
  8  9  1  0  0  0  0
  8 12  1  0  0  0  0
  9 10  2  0  0  0  0
  9 36  1  0  0  0  0
 10 11  1  0  0  0  0
 11 12  2  0  0  0  0
 11 37  1  0  0  0  0
 13 14  1  0  0  0  0
 14 38  1  0  0  0  0
 14 39  1  0  0  0  0
 15 16  2  0  0  0  0
 15 19  1  0  0  0  0
 16 17  1  0  0  0  0
 16 40  1  0  0  0  0
 17 18  2  0  0  0  0
 17 25  1  0  0  0  0
 18 19  1  0  0  0  0
 18 20  1  0  0  0  0
 20 21  1  0  0  0  0
 20 22  2  0  0  0  0
 22 23  1  0  0  0  0
 22 41  1  0  0  0  0
 23 24  1  0  0  0  0
 23 25  2  0  0  0  0
 25 42  1  0  0  0  0
M  END
