./103597-45-1.hin
 OpenBabel10051109203D

 99104  0  0  0  0  0  0  0  0999 V2000
   -1.0018   -1.2854   -1.8303 C   0  0  0  0  0  0  0  0  0  0  0  0
   -2.2891   -0.8418   -2.2085 C   0  0  0  0  0  0  0  0  0  0  0  0
   -3.3791   -1.0183   -1.3362 C   0  0  0  0  0  0  0  0  0  0  0  0
   -3.1934   -1.5946   -0.0784 C   0  0  0  0  0  0  0  0  0  0  0  0
   -1.9049   -2.0066    0.2944 C   0  0  0  0  0  0  0  0  0  0  0  0
   -0.8141   -1.8710   -0.5627 C   0  0  0  0  0  0  0  0  0  0  0  0
   -3.9216   -0.9959    2.1929 C   0  0  0  0  0  0  0  0  0  0  0  0
   -4.3219   -1.7399    0.9063 C   0  0  0  0  0  0  0  0  0  0  0  0
   -4.5876   -3.1993    1.3089 C   0  0  0  0  0  0  0  0  0  0  0  0
   -4.7342   -4.3168    0.2711 C   0  0  0  0  0  0  0  0  0  0  0  0
   -5.4683   -5.4715    0.9576 C   0  0  0  0  0  0  0  0  0  0  0  0
   -5.5306   -3.9114   -0.9555 C   0  0  0  0  0  0  0  0  0  0  0  0
   -3.3716   -4.8327   -0.1736 C   0  0  0  0  0  0  0  0  0  0  0  0
   -5.6076   -1.0740    0.4247 C   0  0  0  0  0  0  0  0  0  0  0  0
    0.5234   -2.3854   -0.1433 C   0  0  0  0  0  0  0  0  0  0  0  0
    1.4361   -1.3217    0.3691 C   0  0  0  0  0  0  0  0  0  0  0  0
    1.2434   -0.7774    1.6622 C   0  0  0  0  0  0  0  0  0  0  0  0
    2.1084    0.2430    2.1150 C   0  0  0  0  0  0  0  0  0  0  0  0
    3.1688    0.6860    1.2984 C   0  0  0  0  0  0  0  0  0  0  0  0
    3.3810    0.1232    0.0416 C   0  0  0  0  0  0  0  0  0  0  0  0
    2.5067   -0.8825   -0.4023 C   0  0  0  0  0  0  0  0  0  0  0  0
    3.8268    1.0522   -2.1907 C   0  0  0  0  0  0  0  0  0  0  0  0
    4.4784    0.5943   -0.8735 C   0  0  0  0  0  0  0  0  0  0  0  0
    5.4775   -0.5144   -1.2405 C   0  0  0  0  0  0  0  0  0  0  0  0
    6.1119   -1.4218   -0.1816 C   0  0  0  0  0  0  0  0  0  0  0  0
    7.3688   -2.0300   -0.8090 C   0  0  0  0  0  0  0  0  0  0  0  0
    6.5203   -0.6897    1.0835 C   0  0  0  0  0  0  0  0  0  0  0  0
    5.1784   -2.5669    0.1895 C   0  0  0  0  0  0  0  0  0  0  0  0
    5.2107    1.8158   -0.3256 C   0  0  0  0  0  0  0  0  0  0  0  0
    0.2149   -1.3306    2.3799 O   0  0  0  0  0  0  0  0  0  0  0  0
    0.7547    1.3934    3.7911 N   0  0  0  0  0  0  0  0  0  0  0  0
    1.9327    0.8573    3.4130 N   0  0  0  0  0  0  0  0  0  0  0  0
    2.9646    1.0202    4.2619 N   0  0  0  0  0  0  0  0  0  0  0  0
    2.4356    1.7167    5.3178 C   0  0  0  0  0  0  0  0  0  0  0  0
    1.0086    1.9557    5.0148 C   0  0  0  0  0  0  0  0  0  0  0  0
    2.9862    2.1942    6.5390 C   0  0  0  0  0  0  0  0  0  0  0  0
    2.1614    2.8691    7.3956 C   0  0  0  0  0  0  0  0  0  0  0  0
    0.7824    3.1016    7.1017 C   0  0  0  0  0  0  0  0  0  0  0  0
    0.1986    2.6628    5.9457 C   0  0  0  0  0  0  0  0  0  0  0  0
   -1.7836    0.8611   -3.8792 N   0  0  0  0  0  0  0  0  0  0  0  0
   -2.5076   -0.2015   -3.4865 N   0  0  0  0  0  0  0  0  0  0  0  0
   -3.4556   -0.6355   -4.3382 N   0  0  0  0  0  0  0  0  0  0  0  0
   -3.3653    0.2141   -5.4115 C   0  0  0  0  0  0  0  0  0  0  0  0
   -2.2865    1.1793   -5.1158 C   0  0  0  0  0  0  0  0  0  0  0  0
   -4.0752    0.3059   -6.6396 C   0  0  0  0  0  0  0  0  0  0  0  0
   -3.7275    1.3006   -7.5115 C   0  0  0  0  0  0  0  0  0  0  0  0
   -2.6856    2.2348   -7.2248 C   0  0  0  0  0  0  0  0  0  0  0  0
   -1.9690    2.1926   -6.0607 C   0  0  0  0  0  0  0  0  0  0  0  0
    0.0220   -1.1946   -2.7445 O   0  0  0  0  0  0  0  0  0  0  0  0
   -4.3807   -0.6883   -1.6582 H   0  0  0  0  0  0  0  0  0  0  0  0
   -1.7397   -2.4540    1.2898 H   0  0  0  0  0  0  0  0  0  0  0  0
   -3.7292    0.0798    1.9672 H   0  0  0  0  0  0  0  0  0  0  0  0
   -4.7476   -1.0644    2.9407 H   0  0  0  0  0  0  0  0  0  0  0  0
   -2.9994   -1.4340    2.6425 H   0  0  0  0  0  0  0  0  0  0  0  0
   -3.7560   -3.5123    1.9999 H   0  0  0  0  0  0  0  0  0  0  0  0
   -5.5317   -3.1811    1.9222 H   0  0  0  0  0  0  0  0  0  0  0  0
   -5.5324   -6.3479    0.2693 H   0  0  0  0  0  0  0  0  0  0  0  0
   -4.9239   -5.7822    1.8809 H   0  0  0  0  0  0  0  0  0  0  0  0
   -6.5042   -5.1648    1.2375 H   0  0  0  0  0  0  0  0  0  0  0  0
   -5.6496   -4.7879   -1.6385 H   0  0  0  0  0  0  0  0  0  0  0  0
   -6.5471   -3.5552   -0.6618 H   0  0  0  0  0  0  0  0  0  0  0  0
   -5.0005   -3.1018   -1.5144 H   0  0  0  0  0  0  0  0  0  0  0  0
   -3.4981   -5.7155   -0.8460 H   0  0  0  0  0  0  0  0  0  0  0  0
   -2.8154   -4.0422   -0.7316 H   0  0  0  0  0  0  0  0  0  0  0  0
   -2.7637   -5.1445    0.7093 H   0  0  0  0  0  0  0  0  0  0  0  0
   -5.9776   -1.5121   -0.5307 H   0  0  0  0  0  0  0  0  0  0  0  0
   -6.4064   -1.1989    1.1961 H   0  0  0  0  0  0  0  0  0  0  0  0
   -5.4379    0.0198    0.2708 H   0  0  0  0  0  0  0  0  0  0  0  0
    1.0041   -2.9072   -1.0171 H   0  0  0  0  0  0  0  0  0  0  0  0
    0.3822   -3.1527    0.6691 H   0  0  0  0  0  0  0  0  0  0  0  0
    3.8338    1.4836    1.6704 H   0  0  0  0  0  0  0  0  0  0  0  0
    2.6920   -1.3557   -1.3820 H   0  0  0  0  0  0  0  0  0  0  0  0
    3.0996    1.8750   -1.9922 H   0  0  0  0  0  0  0  0  0  0  0  0
    4.6123    1.4280   -2.8891 H   0  0  0  0  0  0  0  0  0  0  0  0
    3.2857    0.2128   -2.6879 H   0  0  0  0  0  0  0  0  0  0  0  0
    4.9688   -1.1935   -1.9802 H   0  0  0  0  0  0  0  0  0  0  0  0
    6.3147   -0.0020   -1.7923 H   0  0  0  0  0  0  0  0  0  0  0  0
    7.8314   -2.7635   -0.1063 H   0  0  0  0  0  0  0  0  0  0  0  0
    7.1113   -2.5585   -1.7576 H   0  0  0  0  0  0  0  0  0  0  0  0
    8.1181   -1.2339   -1.0335 H   0  0  0  0  0  0  0  0  0  0  0  0
    7.0310   -1.3956    1.7832 H   0  0  0  0  0  0  0  0  0  0  0  0
    7.2276    0.1401    0.8441 H   0  0  0  0  0  0  0  0  0  0  0  0
    5.6213   -0.2734    1.6007 H   0  0  0  0  0  0  0  0  0  0  0  0
    4.2713   -2.1809    0.7126 H   0  0  0  0  0  0  0  0  0  0  0  0
    4.8575   -3.1226   -0.7240 H   0  0  0  0  0  0  0  0  0  0  0  0
    5.7012   -3.2800    0.8720 H   0  0  0  0  0  0  0  0  0  0  0  0
    5.6984    1.6103    0.6550 H   0  0  0  0  0  0  0  0  0  0  0  0
    6.0028    2.1328   -1.0474 H   0  0  0  0  0  0  0  0  0  0  0  0
    4.4960    2.6650   -0.1960 H   0  0  0  0  0  0  0  0  0  0  0  0
    0.1496   -0.9203    3.2526 H   0  0  0  0  0  0  0  0  0  0  0  0
    4.0471    2.0149    6.7638 H   0  0  0  0  0  0  0  0  0  0  0  0
    2.5546    3.2550    8.3492 H   0  0  0  0  0  0  0  0  0  0  0  0
    0.1861    3.6553    7.8438 H   0  0  0  0  0  0  0  0  0  0  0  0
   -0.8614    2.8429    5.7175 H   0  0  0  0  0  0  0  0  0  0  0  0
   -4.8756   -0.4142   -6.8601 H   0  0  0  0  0  0  0  0  0  0  0  0
   -4.2564    1.4009   -8.4718 H   0  0  0  0  0  0  0  0  0  0  0  0
   -2.4667    3.0066   -7.9787 H   0  0  0  0  0  0  0  0  0  0  0  0
   -1.1666    2.9101   -5.8394 H   0  0  0  0  0  0  0  0  0  0  0  0
    0.8185   -0.9286   -2.2570 H   0  0  0  0  0  0  0  0  0  0  0  0
  1  2  2  0  0  0  0
  1  6  1  0  0  0  0
  1 49  1  0  0  0  0
  2  3  1  0  0  0  0
  2 41  1  0  0  0  0
  3  4  2  0  0  0  0
  3 50  1  0  0  0  0
  4  5  1  0  0  0  0
  4  8  1  0  0  0  0
  5  6  2  0  0  0  0
  5 51  1  0  0  0  0
  6 15  1  0  0  0  0
  7  8  1  0  0  0  0
  7 52  1  0  0  0  0
  7 53  1  0  0  0  0
  7 54  1  0  0  0  0
  8  9  1  0  0  0  0
  8 14  1  0  0  0  0
  9 10  1  0  0  0  0
  9 55  1  0  0  0  0
  9 56  1  0  0  0  0
 10 11  1  0  0  0  0
 10 12  1  0  0  0  0
 10 13  1  0  0  0  0
 11 57  1  0  0  0  0
 11 58  1  0  0  0  0
 11 59  1  0  0  0  0
 12 60  1  0  0  0  0
 12 61  1  0  0  0  0
 12 62  1  0  0  0  0
 13 63  1  0  0  0  0
 13 64  1  0  0  0  0
 13 65  1  0  0  0  0
 14 66  1  0  0  0  0
 14 67  1  0  0  0  0
 14 68  1  0  0  0  0
 15 16  1  0  0  0  0
 15 69  1  0  0  0  0
 15 70  1  0  0  0  0
 16 17  2  0  0  0  0
 16 21  1  0  0  0  0
 17 18  1  0  0  0  0
 17 30  1  0  0  0  0
 18 19  2  0  0  0  0
 18 32  1  0  0  0  0
 19 20  1  0  0  0  0
 19 71  1  0  0  0  0
 20 21  2  0  0  0  0
 20 23  1  0  0  0  0
 21 72  1  0  0  0  0
 22 23  1  0  0  0  0
 22 73  1  0  0  0  0
 22 74  1  0  0  0  0
 22 75  1  0  0  0  0
 23 24  1  0  0  0  0
 23 29  1  0  0  0  0
 24 25  1  0  0  0  0
 24 76  1  0  0  0  0
 24 77  1  0  0  0  0
 25 26  1  0  0  0  0
 25 27  1  0  0  0  0
 25 28  1  0  0  0  0
 26 78  1  0  0  0  0
 26 79  1  0  0  0  0
 26 80  1  0  0  0  0
 27 81  1  0  0  0  0
 27 82  1  0  0  0  0
 27 83  1  0  0  0  0
 28 84  1  0  0  0  0
 28 85  1  0  0  0  0
 28 86  1  0  0  0  0
 29 87  1  0  0  0  0
 29 88  1  0  0  0  0
 29 89  1  0  0  0  0
 30 90  1  0  0  0  0
 31 32  1  0  0  0  0
 31 35  2  0  0  0  0
 32 33  1  0  0  0  0
 33 34  2  0  0  0  0
 34 35  1  0  0  0  0
 34 36  1  0  0  0  0
 35 39  1  0  0  0  0
 36 37  2  0  0  0  0
 36 91  1  0  0  0  0
 37 38  1  0  0  0  0
 37 92  1  0  0  0  0
 38 39  2  0  0  0  0
 38 93  1  0  0  0  0
 39 94  1  0  0  0  0
 40 41  1  0  0  0  0
 40 44  2  0  0  0  0
 41 42  1  0  0  0  0
 42 43  2  0  0  0  0
 43 44  1  0  0  0  0
 43 45  1  0  0  0  0
 44 48  1  0  0  0  0
 45 46  2  0  0  0  0
 45 95  1  0  0  0  0
 46 47  1  0  0  0  0
 46 96  1  0  0  0  0
 47 48  2  0  0  0  0
 47 97  1  0  0  0  0
 48 98  1  0  0  0  0
 49 99  1  0  0  0  0
M  END
