./107534-96-3.hin
 OpenBabel10051109203D

 43 44  0  0  0  0  0  0  0  0999 V2000
    0.4843   -0.3914    3.1967 N   0  0  0  0  0  0  0  0  0  0  0  0
    0.8147    0.4975    4.1522 N   0  0  0  0  0  0  0  0  0  0  0  0
    2.1668    0.6316    4.0512 C   0  0  0  0  0  0  0  0  0  0  0  0
    2.7239   -0.1687    3.0369 N   0  0  0  0  0  0  0  0  0  0  0  0
    1.6539   -0.8039    2.5165 C   0  0  0  0  0  0  0  0  0  0  0  0
   -0.8434   -0.9086    2.9607 C   0  0  0  0  0  0  0  0  0  0  0  0
   -1.6238   -0.3363    1.7256 C   0  0  0  0  0  0  0  0  0  0  0  0
   -2.7116   -1.2678    1.6764 O   0  0  0  0  0  0  0  0  0  0  0  0
   -2.1734    1.1019    1.9284 C   0  0  0  0  0  0  0  0  0  0  0  0
   -3.4369    1.3248    1.0947 C   0  0  0  0  0  0  0  0  0  0  0  0
   -2.5798    1.3329    3.3822 C   0  0  0  0  0  0  0  0  0  0  0  0
   -1.1520    2.1590    1.5354 C   0  0  0  0  0  0  0  0  0  0  0  0
   -0.7286   -0.5195    0.4905 C   0  0  0  0  0  0  0  0  0  0  0  0
   -1.3826   -0.3335   -0.8647 C   0  0  0  0  0  0  0  0  0  0  0  0
   -0.4751   -0.7850   -1.9580 C   0  0  0  0  0  0  0  0  0  0  0  0
   -0.7545   -1.9507   -2.6792 C   0  0  0  0  0  0  0  0  0  0  0  0
    0.0869   -2.3648   -3.7101 C   0  0  0  0  0  0  0  0  0  0  0  0
    1.2193   -1.6070   -4.0224 C   0  0  0  0  0  0  0  0  0  0  0  0
    1.5101   -0.4394   -3.3090 C   0  0  0  0  0  0  0  0  0  0  0  0
    0.6616   -0.0341   -2.2821 C   0  0  0  0  0  0  0  0  0  0  0  0
    2.2496   -2.1070   -5.2785 Cl  0  0  0  0  0  0  0  0  0  0  0  0
    2.7678    1.2867    4.6896 H   0  0  0  0  0  0  0  0  0  0  0  0
    1.6514   -1.5333    1.7005 H   0  0  0  0  0  0  0  0  0  0  0  0
   -0.7362   -2.0193    2.7809 H   0  0  0  0  0  0  0  0  0  0  0  0
   -1.4749   -0.7713    3.8825 H   0  0  0  0  0  0  0  0  0  0  0  0
   -3.2273   -1.0733    0.8861 H   0  0  0  0  0  0  0  0  0  0  0  0
   -3.7218    2.4045    1.1319 H   0  0  0  0  0  0  0  0  0  0  0  0
   -3.2870    1.0427    0.0274 H   0  0  0  0  0  0  0  0  0  0  0  0
   -4.2856    0.7270    1.5085 H   0  0  0  0  0  0  0  0  0  0  0  0
   -3.1616    2.2841    3.4615 H   0  0  0  0  0  0  0  0  0  0  0  0
   -3.2270    0.4949    3.7377 H   0  0  0  0  0  0  0  0  0  0  0  0
   -1.6878    1.4232    4.0448 H   0  0  0  0  0  0  0  0  0  0  0  0
   -1.5393    3.1709    1.8117 H   0  0  0  0  0  0  0  0  0  0  0  0
   -0.1826    2.0054    2.0627 H   0  0  0  0  0  0  0  0  0  0  0  0
   -0.9696    2.1469    0.4339 H   0  0  0  0  0  0  0  0  0  0  0  0
    0.1447    0.1817    0.5636 H   0  0  0  0  0  0  0  0  0  0  0  0
   -0.3255   -1.5695    0.5315 H   0  0  0  0  0  0  0  0  0  0  0  0
   -2.3448   -0.9096   -0.9156 H   0  0  0  0  0  0  0  0  0  0  0  0
   -1.6248    0.7516   -1.0297 H   0  0  0  0  0  0  0  0  0  0  0  0
   -1.6457   -2.5485   -2.4347 H   0  0  0  0  0  0  0  0  0  0  0  0
   -0.1413   -3.2826   -4.2730 H   0  0  0  0  0  0  0  0  0  0  0  0
    2.4022    0.1560   -3.5559 H   0  0  0  0  0  0  0  0  0  0  0  0
    0.8860    0.8853   -1.7196 H   0  0  0  0  0  0  0  0  0  0  0  0
  1  2  1  0  0  0  0
  1  5  1  0  0  0  0
  1  6  1  0  0  0  0
  2  3  2  0  0  0  0
  3  4  1  0  0  0  0
  3 22  1  0  0  0  0
  4  5  2  0  0  0  0
  5 23  1  0  0  0  0
  6  7  1  0  0  0  0
  6 24  1  0  0  0  0
  6 25  1  0  0  0  0
  7  8  1  0  0  0  0
  7  9  1  0  0  0  0
  7 13  1  0  0  0  0
  8 26  1  0  0  0  0
  9 10  1  0  0  0  0
  9 11  1  0  0  0  0
  9 12  1  0  0  0  0
 10 27  1  0  0  0  0
 10 28  1  0  0  0  0
 10 29  1  0  0  0  0
 11 30  1  0  0  0  0
 11 31  1  0  0  0  0
 11 32  1  0  0  0  0
 12 33  1  0  0  0  0
 12 34  1  0  0  0  0
 12 35  1  0  0  0  0
 13 14  1  0  0  0  0
 13 36  1  0  0  0  0
 13 37  1  0  0  0  0
 14 15  1  0  0  0  0
 14 38  1  0  0  0  0
 14 39  1  0  0  0  0
 15 16  2  0  0  0  0
 15 20  1  0  0  0  0
 16 17  1  0  0  0  0
 16 40  1  0  0  0  0
 17 18  2  0  0  0  0
 17 41  1  0  0  0  0
 18 19  1  0  0  0  0
 18 21  1  0  0  0  0
 19 20  2  0  0  0  0
 19 42  1  0  0  0  0
 20 43  1  0  0  0  0
M  END
