./112143-82-5.hin
 OpenBabel10051109203D

 43 43  0  0  0  0  0  0  0  0999 V2000
   -1.3619   -5.6701    2.0390 C   0  0  0  0  0  0  0  0  0  0  0  0
   -1.3800   -4.2814    1.4429 C   0  0  0  0  0  0  0  0  0  0  0  0
   -2.1461   -4.3806    0.2346 O   0  0  0  0  0  0  0  0  0  0  0  0
   -2.4028   -3.2407   -0.4791 C   0  0  0  0  0  0  0  0  0  0  0  0
   -3.0553   -3.4730   -1.4987 O   0  0  0  0  0  0  0  0  0  0  0  0
   -1.9603   -1.9027    0.0160 C   0  0  0  0  0  0  0  0  0  0  0  0
   -1.5813   -0.8432   -1.3514 S   0  0  0  0  0  0  0  0  0  0  0  0
   -0.4312    0.2107   -0.6872 C   0  0  0  0  0  0  0  0  0  0  0  0
   -0.6279    1.5229   -0.4280 N   0  0  0  0  0  0  0  0  0  0  0  0
    0.6410    2.0193   -0.0530 C   0  0  0  0  0  0  0  0  0  0  0  0
    0.8701    3.4614    0.3232 C   0  0  0  0  0  0  0  0  0  0  0  0
    0.0282    3.7856    1.5520 C   0  0  0  0  0  0  0  0  0  0  0  0
    2.3378    3.7169    0.6388 C   0  0  0  0  0  0  0  0  0  0  0  0
    0.4446    4.3488   -0.8407 C   0  0  0  0  0  0  0  0  0  0  0  0
    1.5952    1.0372   -0.0717 N   0  0  0  0  0  0  0  0  0  0  0  0
    0.9523   -0.0707   -0.4650 N   0  0  0  0  0  0  0  0  0  0  0  0
    1.5944   -1.3807   -0.4759 C   0  0  0  0  0  0  0  0  0  0  0  0
    1.0782   -2.2854    0.2124 O   0  0  0  0  0  0  0  0  0  0  0  0
    2.7157   -1.5771   -1.2604 N   0  0  0  0  0  0  0  0  0  0  0  0
    3.4265   -2.8272   -1.1501 C   0  0  0  0  0  0  0  0  0  0  0  0
    3.3514   -0.5267   -2.0085 C   0  0  0  0  0  0  0  0  0  0  0  0
   -0.7669   -5.6529    2.9828 H   0  0  0  0  0  0  0  0  0  0  0  0
   -2.3998   -6.0140    2.2634 H   0  0  0  0  0  0  0  0  0  0  0  0
   -0.8999   -6.3935    1.3254 H   0  0  0  0  0  0  0  0  0  0  0  0
   -1.8734   -3.5516    2.1374 H   0  0  0  0  0  0  0  0  0  0  0  0
   -0.3417   -3.9322    1.1935 H   0  0  0  0  0  0  0  0  0  0  0  0
   -2.8031   -1.4644    0.6117 H   0  0  0  0  0  0  0  0  0  0  0  0
   -1.0694   -1.9894    0.6906 H   0  0  0  0  0  0  0  0  0  0  0  0
    0.2073    4.8448    1.8573 H   0  0  0  0  0  0  0  0  0  0  0  0
   -1.0583    3.6569    1.3310 H   0  0  0  0  0  0  0  0  0  0  0  0
    0.3056    3.1165    2.4008 H   0  0  0  0  0  0  0  0  0  0  0  0
    2.4770    4.7916    0.9100 H   0  0  0  0  0  0  0  0  0  0  0  0
    2.6731    3.0883    1.4978 H   0  0  0  0  0  0  0  0  0  0  0  0
    2.9775    3.4890   -0.2467 H   0  0  0  0  0  0  0  0  0  0  0  0
    0.6414    5.4180   -0.5852 H   0  0  0  0  0  0  0  0  0  0  0  0
    1.0216    4.0884   -1.7596 H   0  0  0  0  0  0  0  0  0  0  0  0
   -0.6446    4.2279   -1.0528 H   0  0  0  0  0  0  0  0  0  0  0  0
    4.4272   -2.6578   -0.6688 H   0  0  0  0  0  0  0  0  0  0  0  0
    2.8432   -3.5650   -0.5373 H   0  0  0  0  0  0  0  0  0  0  0  0
    3.5805   -3.2479   -2.1801 H   0  0  0  0  0  0  0  0  0  0  0  0
    4.0839   -0.9867   -2.7252 H   0  0  0  0  0  0  0  0  0  0  0  0
    2.5944    0.0519   -2.6010 H   0  0  0  0  0  0  0  0  0  0  0  0
    3.9049    0.1766   -1.3295 H   0  0  0  0  0  0  0  0  0  0  0  0
  1  2  1  0  0  0  0
  1 22  1  0  0  0  0
  1 23  1  0  0  0  0
  1 24  1  0  0  0  0
  2  3  1  0  0  0  0
  2 25  1  0  0  0  0
  2 26  1  0  0  0  0
  3  4  1  0  0  0  0
  4  5  2  0  0  0  0
  4  6  1  0  0  0  0
  6  7  1  0  0  0  0
  6 27  1  0  0  0  0
  6 28  1  0  0  0  0
  7  8  1  0  0  0  0
  8  9  2  0  0  0  0
  8 16  1  0  0  0  0
  9 10  1  0  0  0  0
 10 11  1  0  0  0  0
 10 15  2  0  0  0  0
 11 12  1  0  0  0  0
 11 13  1  0  0  0  0
 11 14  1  0  0  0  0
 12 29  1  0  0  0  0
 12 30  1  0  0  0  0
 12 31  1  0  0  0  0
 13 32  1  0  0  0  0
 13 33  1  0  0  0  0
 13 34  1  0  0  0  0
 14 35  1  0  0  0  0
 14 36  1  0  0  0  0
 14 37  1  0  0  0  0
 15 16  1  0  0  0  0
 16 17  1  0  0  0  0
 17 18  2  0  0  0  0
 17 19  1  0  0  0  0
 19 20  1  0  0  0  0
 19 21  1  0  0  0  0
 20 38  1  0  0  0  0
 20 39  1  0  0  0  0
 20 40  1  0  0  0  0
 21 41  1  0  0  0  0
 21 42  1  0  0  0  0
 21 43  1  0  0  0  0
M  END
