./125116-23-6.hin
 OpenBabel10051109203D

 44 46  0  0  0  0  0  0  0  0999 V2000
    0.8634   -1.4697    2.2499 C   0  0  0  0  0  0  0  0  0  0  0  0
    2.0311   -2.2245    2.3391 C   0  0  0  0  0  0  0  0  0  0  0  0
    3.2730   -1.5888    2.2448 C   0  0  0  0  0  0  0  0  0  0  0  0
    4.7007   -2.5025    2.3524 Cl  0  0  0  0  0  0  0  0  0  0  0  0
    3.3459   -0.2036    2.0648 C   0  0  0  0  0  0  0  0  0  0  0  0
    2.1723    0.5409    1.9772 C   0  0  0  0  0  0  0  0  0  0  0  0
    0.9210   -0.0829    2.0636 C   0  0  0  0  0  0  0  0  0  0  0  0
   -0.3320    0.7200    2.0147 C   0  0  0  0  0  0  0  0  0  0  0  0
   -0.4779    1.5797    0.7735 C   0  0  0  0  0  0  0  0  0  0  0  0
   -1.7064    2.4807    0.8800 C   0  0  0  0  0  0  0  0  0  0  0  0
   -2.1971    2.7340   -0.5362 C   0  0  0  0  0  0  0  0  0  0  0  0
   -1.2912    1.9496   -1.5025 C   0  0  0  0  0  0  0  0  0  0  0  0
   -0.2289    2.8783   -2.0800 C   0  0  0  0  0  0  0  0  0  0  0  0
   -2.1116    1.3992   -2.6508 C   0  0  0  0  0  0  0  0  0  0  0  0
   -0.6040    0.8695   -0.6076 C   0  0  0  0  0  0  0  0  0  0  0  0
    0.6814    0.5944   -1.1441 O   0  0  0  0  0  0  0  0  0  0  0  0
   -1.4021   -0.4430   -0.4380 C   0  0  0  0  0  0  0  0  0  0  0  0
   -1.4983   -1.3192   -1.5877 N   0  0  0  0  0  0  0  0  0  0  0  0
   -2.5725   -2.0998   -1.8252 N   0  0  0  0  0  0  0  0  0  0  0  0
   -2.2408   -2.8161   -2.9354 C   0  0  0  0  0  0  0  0  0  0  0  0
   -0.9586   -2.5090   -3.4237 N   0  0  0  0  0  0  0  0  0  0  0  0
   -0.5098   -1.5700   -2.5641 C   0  0  0  0  0  0  0  0  0  0  0  0
   -0.1119   -1.9745    2.3345 H   0  0  0  0  0  0  0  0  0  0  0  0
    1.9732   -3.3143    2.4842 H   0  0  0  0  0  0  0  0  0  0  0  0
    4.3235    0.2977    1.9957 H   0  0  0  0  0  0  0  0  0  0  0  0
    2.2326    1.6324    1.8463 H   0  0  0  0  0  0  0  0  0  0  0  0
   -1.2284    0.0528    2.1309 H   0  0  0  0  0  0  0  0  0  0  0  0
   -0.3352    1.4126    2.9043 H   0  0  0  0  0  0  0  0  0  0  0  0
    0.4413    2.2298    0.6940 H   0  0  0  0  0  0  0  0  0  0  0  0
   -1.4417    3.4371    1.3954 H   0  0  0  0  0  0  0  0  0  0  0  0
   -2.5059    1.9837    1.4868 H   0  0  0  0  0  0  0  0  0  0  0  0
   -2.1687    3.8252   -0.7805 H   0  0  0  0  0  0  0  0  0  0  0  0
   -3.2595    2.3962   -0.6422 H   0  0  0  0  0  0  0  0  0  0  0  0
    0.3911    3.3182   -1.2634 H   0  0  0  0  0  0  0  0  0  0  0  0
    0.4432    2.3099   -2.7675 H   0  0  0  0  0  0  0  0  0  0  0  0
   -0.7140    3.7057   -2.6513 H   0  0  0  0  0  0  0  0  0  0  0  0
   -2.5217    2.2491   -3.2510 H   0  0  0  0  0  0  0  0  0  0  0  0
   -1.4741    0.7736   -3.3214 H   0  0  0  0  0  0  0  0  0  0  0  0
   -2.9739    0.7925   -2.2849 H   0  0  0  0  0  0  0  0  0  0  0  0
    1.1884    0.1587   -0.4441 H   0  0  0  0  0  0  0  0  0  0  0  0
   -0.8976   -1.0501    0.3727 H   0  0  0  0  0  0  0  0  0  0  0  0
   -2.4394   -0.1636   -0.0945 H   0  0  0  0  0  0  0  0  0  0  0  0
   -2.8960   -3.5548   -3.4068 H   0  0  0  0  0  0  0  0  0  0  0  0
    0.4521   -1.0426   -2.5943 H   0  0  0  0  0  0  0  0  0  0  0  0
  1  2  2  0  0  0  0
  1  7  1  0  0  0  0
  1 23  1  0  0  0  0
  2  3  1  0  0  0  0
  2 24  1  0  0  0  0
  3  4  1  0  0  0  0
  3  5  2  0  0  0  0
  5  6  1  0  0  0  0
  5 25  1  0  0  0  0
  6  7  2  0  0  0  0
  6 26  1  0  0  0  0
  7  8  1  0  0  0  0
  8  9  1  0  0  0  0
  8 27  1  0  0  0  0
  8 28  1  0  0  0  0
  9 10  1  0  0  0  0
  9 15  1  0  0  0  0
  9 29  1  0  0  0  0
 10 11  1  0  0  0  0
 10 30  1  0  0  0  0
 10 31  1  0  0  0  0
 11 12  1  0  0  0  0
 11 32  1  0  0  0  0
 11 33  1  0  0  0  0
 12 13  1  0  0  0  0
 12 14  1  0  0  0  0
 12 15  1  0  0  0  0
 13 34  1  0  0  0  0
 13 35  1  0  0  0  0
 13 36  1  0  0  0  0
 14 37  1  0  0  0  0
 14 38  1  0  0  0  0
 14 39  1  0  0  0  0
 15 16  1  0  0  0  0
 15 17  1  0  0  0  0
 16 40  1  0  0  0  0
 17 18  1  0  0  0  0
 17 41  1  0  0  0  0
 17 42  1  0  0  0  0
 18 19  1  0  0  0  0
 18 22  1  0  0  0  0
 19 20  2  0  0  0  0
 20 21  1  0  0  0  0
 20 43  1  0  0  0  0
 21 22  2  0  0  0  0
 22 44  1  0  0  0  0
M  END
