./125225-28-7.hin
 OpenBabel10051109203D

 47 49  0  0  0  0  0  0  0  0999 V2000
    0.7940   -1.8442    2.4415 C   0  0  0  0  0  0  0  0  0  0  0  0
    1.9607   -2.5892    2.6001 C   0  0  0  0  0  0  0  0  0  0  0  0
    3.1962   -1.9360    2.6448 C   0  0  0  0  0  0  0  0  0  0  0  0
    4.6225   -2.8378    2.8369 Cl  0  0  0  0  0  0  0  0  0  0  0  0
    3.2636   -0.5431    2.5350 C   0  0  0  0  0  0  0  0  0  0  0  0
    2.0911    0.1915    2.3776 C   0  0  0  0  0  0  0  0  0  0  0  0
    0.8467   -0.4497    2.3243 C   0  0  0  0  0  0  0  0  0  0  0  0
   -0.4088    0.3407    2.1986 C   0  0  0  0  0  0  0  0  0  0  0  0
   -0.4624    1.2378    0.9765 C   0  0  0  0  0  0  0  0  0  0  0  0
   -1.6978    2.1341    1.0093 C   0  0  0  0  0  0  0  0  0  0  0  0
   -2.0508    2.4521   -0.4352 C   0  0  0  0  0  0  0  0  0  0  0  0
   -1.1734    1.5878   -1.3519 C   0  0  0  0  0  0  0  0  0  0  0  0
   -0.2566    2.4592   -2.2101 C   0  0  0  0  0  0  0  0  0  0  0  0
    0.8445    3.1416   -1.4284 C   0  0  0  0  0  0  0  0  0  0  0  0
    0.3196    1.6838   -3.3771 C   0  0  0  0  0  0  0  0  0  0  0  0
   -0.4959    0.5530   -0.4157 C   0  0  0  0  0  0  0  0  0  0  0  0
    0.8109    0.2463   -0.8709 O   0  0  0  0  0  0  0  0  0  0  0  0
   -1.3247   -0.7562   -0.3336 C   0  0  0  0  0  0  0  0  0  0  0  0
   -1.4863   -1.4723   -1.5804 N   0  0  0  0  0  0  0  0  0  0  0  0
   -2.6612   -1.9603   -2.0251 N   0  0  0  0  0  0  0  0  0  0  0  0
   -2.3499   -2.5989   -3.1876 C   0  0  0  0  0  0  0  0  0  0  0  0
   -0.9810   -2.5277   -3.5053 N   0  0  0  0  0  0  0  0  0  0  0  0
   -0.4579   -1.8161   -2.4853 C   0  0  0  0  0  0  0  0  0  0  0  0
   -0.1773   -2.3628    2.4172 H   0  0  0  0  0  0  0  0  0  0  0  0
    1.9068   -3.6850    2.6910 H   0  0  0  0  0  0  0  0  0  0  0  0
    4.2358   -0.0284    2.5756 H   0  0  0  0  0  0  0  0  0  0  0  0
    2.1454    1.2886    2.3022 H   0  0  0  0  0  0  0  0  0  0  0  0
   -1.3007   -0.3421    2.2151 H   0  0  0  0  0  0  0  0  0  0  0  0
   -0.4966    1.0019    3.1071 H   0  0  0  0  0  0  0  0  0  0  0  0
    0.4587    1.8900    0.9753 H   0  0  0  0  0  0  0  0  0  0  0  0
   -1.4877    3.0661    1.5900 H   0  0  0  0  0  0  0  0  0  0  0  0
   -2.5487    1.6083    1.5134 H   0  0  0  0  0  0  0  0  0  0  0  0
   -1.8918    3.5402   -0.6440 H   0  0  0  0  0  0  0  0  0  0  0  0
   -3.1315    2.2329   -0.6276 H   0  0  0  0  0  0  0  0  0  0  0  0
   -1.8412    1.0375   -2.0710 H   0  0  0  0  0  0  0  0  0  0  0  0
   -0.9181    3.2692   -2.6432 H   0  0  0  0  0  0  0  0  0  0  0  0
    1.3726    3.8794   -2.0798 H   0  0  0  0  0  0  0  0  0  0  0  0
    0.4221    3.6829   -0.5473 H   0  0  0  0  0  0  0  0  0  0  0  0
    1.5909    2.3936   -1.0653 H   0  0  0  0  0  0  0  0  0  0  0  0
    0.9478    2.3581   -4.0081 H   0  0  0  0  0  0  0  0  0  0  0  0
    0.9570    0.8391   -3.0192 H   0  0  0  0  0  0  0  0  0  0  0  0
   -0.4990    1.2658   -4.0112 H   0  0  0  0  0  0  0  0  0  0  0  0
    1.2791   -0.1573   -0.1259 H   0  0  0  0  0  0  0  0  0  0  0  0
   -0.7993   -1.4559    0.3814 H   0  0  0  0  0  0  0  0  0  0  0  0
   -2.3391   -0.4954    0.0829 H   0  0  0  0  0  0  0  0  0  0  0  0
   -3.0797   -3.1163   -3.8175 H   0  0  0  0  0  0  0  0  0  0  0  0
    0.5836   -1.4994   -2.3475 H   0  0  0  0  0  0  0  0  0  0  0  0
  1  2  2  0  0  0  0
  1  7  1  0  0  0  0
  1 24  1  0  0  0  0
  2  3  1  0  0  0  0
  2 25  1  0  0  0  0
  3  4  1  0  0  0  0
  3  5  2  0  0  0  0
  5  6  1  0  0  0  0
  5 26  1  0  0  0  0
  6  7  2  0  0  0  0
  6 27  1  0  0  0  0
  7  8  1  0  0  0  0
  8  9  1  0  0  0  0
  8 28  1  0  0  0  0
  8 29  1  0  0  0  0
  9 10  1  0  0  0  0
  9 16  1  0  0  0  0
  9 30  1  0  0  0  0
 10 11  1  0  0  0  0
 10 31  1  0  0  0  0
 10 32  1  0  0  0  0
 11 12  1  0  0  0  0
 11 33  1  0  0  0  0
 11 34  1  0  0  0  0
 12 13  1  0  0  0  0
 12 16  1  0  0  0  0
 12 35  1  0  0  0  0
 13 14  1  0  0  0  0
 13 15  1  0  0  0  0
 13 36  1  0  0  0  0
 14 37  1  0  0  0  0
 14 38  1  0  0  0  0
 14 39  1  0  0  0  0
 15 40  1  0  0  0  0
 15 41  1  0  0  0  0
 15 42  1  0  0  0  0
 16 17  1  0  0  0  0
 16 18  1  0  0  0  0
 17 43  1  0  0  0  0
 18 19  1  0  0  0  0
 18 44  1  0  0  0  0
 18 45  1  0  0  0  0
 19 20  1  0  0  0  0
 19 23  1  0  0  0  0
 20 21  2  0  0  0  0
 21 22  1  0  0  0  0
 21 46  1  0  0  0  0
 22 23  2  0  0  0  0
 23 47  1  0  0  0  0
M  END
