./125306-83-4.hin
 OpenBabel10051109203D

 46 47  0  0  0  0  0  0  0  0999 V2000
    0.4718   -2.0250   -1.5259 N   0  0  0  0  0  0  0  0  0  0  0  0
    0.1688   -1.4443   -0.3617 N   0  0  0  0  0  0  0  0  0  0  0  0
    0.9814   -0.3539   -0.2703 C   0  0  0  0  0  0  0  0  0  0  0  0
    1.8254   -0.2307   -1.4043 N   0  0  0  0  0  0  0  0  0  0  0  0
    1.4958   -1.2709   -2.1778 C   0  0  0  0  0  0  0  0  0  0  0  0
    1.0643    0.7441    1.0598 S   0  0  0  0  0  0  0  0  0  0  0  0
    0.0323    0.4346    1.9501 O   0  0  0  0  0  0  0  0  0  0  0  0
    2.3493    0.6685    1.5964 O   0  0  0  0  0  0  0  0  0  0  0  0
    0.7759    2.1853    0.2632 C   0  0  0  0  0  0  0  0  0  0  0  0
    1.8302    3.0321   -0.1449 C   0  0  0  0  0  0  0  0  0  0  0  0
    1.5639    4.2438   -0.7912 C   0  0  0  0  0  0  0  0  0  0  0  0
    0.2543    4.6459   -1.0539 C   0  0  0  0  0  0  0  0  0  0  0  0
   -0.7968    3.8135   -0.6605 C   0  0  0  0  0  0  0  0  0  0  0  0
   -0.5468    2.6018   -0.0148 C   0  0  0  0  0  0  0  0  0  0  0  0
   -1.7213    1.7807    0.3780 C   0  0  0  0  0  0  0  0  0  0  0  0
   -0.0204    5.9366   -1.7256 C   0  0  0  0  0  0  0  0  0  0  0  0
    3.2554    2.6912    0.0981 C   0  0  0  0  0  0  0  0  0  0  0  0
   -0.1317   -3.1941   -2.1384 C   0  0  0  0  0  0  0  0  0  0  0  0
    0.1299   -3.3357   -3.3528 O   0  0  0  0  0  0  0  0  0  0  0  0
   -0.8663   -4.1279   -1.4239 N   0  0  0  0  0  0  0  0  0  0  0  0
   -1.5428   -5.1407   -2.2260 C   0  0  0  0  0  0  0  0  0  0  0  0
   -2.7663   -4.6641   -2.9911 C   0  0  0  0  0  0  0  0  0  0  0  0
   -1.2627   -4.0048   -0.0387 C   0  0  0  0  0  0  0  0  0  0  0  0
   -2.5018   -3.1682    0.2371 C   0  0  0  0  0  0  0  0  0  0  0  0
    1.8989   -1.5544   -3.1589 H   0  0  0  0  0  0  0  0  0  0  0  0
    2.4011    4.8891   -1.1002 H   0  0  0  0  0  0  0  0  0  0  0  0
   -1.8347    4.1192   -0.8647 H   0  0  0  0  0  0  0  0  0  0  0  0
   -2.6616    2.1796   -0.0758 H   0  0  0  0  0  0  0  0  0  0  0  0
   -1.5988    0.7181    0.0496 H   0  0  0  0  0  0  0  0  0  0  0  0
   -1.8370    1.7829    1.4937 H   0  0  0  0  0  0  0  0  0  0  0  0
    0.8346    6.2402   -2.3785 H   0  0  0  0  0  0  0  0  0  0  0  0
   -0.9426    5.8718   -2.3541 H   0  0  0  0  0  0  0  0  0  0  0  0
   -0.1758    6.7356   -0.9565 H   0  0  0  0  0  0  0  0  0  0  0  0
    3.5000    1.6755   -0.3044 H   0  0  0  0  0  0  0  0  0  0  0  0
    3.9353    3.4324   -0.3896 H   0  0  0  0  0  0  0  0  0  0  0  0
    3.4721    2.6836    1.1979 H   0  0  0  0  0  0  0  0  0  0  0  0
   -0.7914   -5.5467   -2.9653 H   0  0  0  0  0  0  0  0  0  0  0  0
   -1.8390   -5.9775   -1.5321 H   0  0  0  0  0  0  0  0  0  0  0  0
   -3.1908   -5.5271   -3.5586 H   0  0  0  0  0  0  0  0  0  0  0  0
   -3.5509   -4.2681   -2.3030 H   0  0  0  0  0  0  0  0  0  0  0  0
   -2.4875   -3.8622   -3.7175 H   0  0  0  0  0  0  0  0  0  0  0  0
   -1.4582   -5.0553    0.3333 H   0  0  0  0  0  0  0  0  0  0  0  0
   -0.3971   -3.6171    0.5686 H   0  0  0  0  0  0  0  0  0  0  0  0
   -2.6341   -3.0887    1.3438 H   0  0  0  0  0  0  0  0  0  0  0  0
   -2.4130   -2.1370   -0.1788 H   0  0  0  0  0  0  0  0  0  0  0  0
   -3.4120   -3.6467   -0.1985 H   0  0  0  0  0  0  0  0  0  0  0  0
  1  2  1  0  0  0  0
  1  5  1  0  0  0  0
  1 18  1  0  0  0  0
  2  3  2  0  0  0  0
  3  4  1  0  0  0  0
  3  6  1  0  0  0  0
  4  5  2  0  0  0  0
  5 25  1  0  0  0  0
  6  7  2  0  0  0  0
  6  8  2  0  0  0  0
  6  9  1  0  0  0  0
  9 10  2  0  0  0  0
  9 14  1  0  0  0  0
 10 11  1  0  0  0  0
 10 17  1  0  0  0  0
 11 12  2  0  0  0  0
 11 26  1  0  0  0  0
 12 13  1  0  0  0  0
 12 16  1  0  0  0  0
 13 14  2  0  0  0  0
 13 27  1  0  0  0  0
 14 15  1  0  0  0  0
 15 28  1  0  0  0  0
 15 29  1  0  0  0  0
 15 30  1  0  0  0  0
 16 31  1  0  0  0  0
 16 32  1  0  0  0  0
 16 33  1  0  0  0  0
 17 34  1  0  0  0  0
 17 35  1  0  0  0  0
 17 36  1  0  0  0  0
 18 19  2  0  0  0  0
 18 20  1  0  0  0  0
 20 21  1  0  0  0  0
 20 23  1  0  0  0  0
 21 22  1  0  0  0  0
 21 37  1  0  0  0  0
 21 38  1  0  0  0  0
 22 39  1  0  0  0  0
 22 40  1  0  0  0  0
 22 41  1  0  0  0  0
 23 24  1  0  0  0  0
 23 42  1  0  0  0  0
 23 43  1  0  0  0  0
 24 44  1  0  0  0  0
 24 45  1  0  0  0  0
 24 46  1  0  0  0  0
M  END
