./131983-72-7.hin
 OpenBabel10051109203D

 42 44  0  0  0  0  0  0  0  0999 V2000
   -3.5025   -2.3854   -1.0429 C   0  0  0  0  0  0  0  0  0  0  0  0
   -3.8768   -1.0674   -0.7570 C   0  0  0  0  0  0  0  0  0  0  0  0
   -5.4657   -0.5543   -1.0688 Cl  0  0  0  0  0  0  0  0  0  0  0  0
   -2.9486   -0.1747   -0.2160 C   0  0  0  0  0  0  0  0  0  0  0  0
   -1.6454   -0.6002    0.0363 C   0  0  0  0  0  0  0  0  0  0  0  0
   -1.2509   -1.9146   -0.2400 C   0  0  0  0  0  0  0  0  0  0  0  0
    0.0741   -2.4426    0.0342 C   0  0  0  0  0  0  0  0  0  0  0  0
    1.2748   -1.8525    0.1007 C   0  0  0  0  0  0  0  0  0  0  0  0
    2.5097   -2.6698    0.3482 C   0  0  0  0  0  0  0  0  0  0  0  0
    3.7060   -1.7798    0.0363 C   0  0  0  0  0  0  0  0  0  0  0  0
    3.1562   -0.5044   -0.6234 C   0  0  0  0  0  0  0  0  0  0  0  0
    3.1331   -0.6810   -2.1357 C   0  0  0  0  0  0  0  0  0  0  0  0
    4.0191    0.6935   -0.2912 C   0  0  0  0  0  0  0  0  0  0  0  0
    1.6888   -0.4026   -0.0866 C   0  0  0  0  0  0  0  0  0  0  0  0
    0.8551    0.3220   -0.9709 O   0  0  0  0  0  0  0  0  0  0  0  0
    1.5930    0.2625    1.3160 C   0  0  0  0  0  0  0  0  0  0  0  0
    1.6209    1.7075    1.3663 N   0  0  0  0  0  0  0  0  0  0  0  0
    2.4007    2.4167    2.2075 N   0  0  0  0  0  0  0  0  0  0  0  0
    2.0513    3.7149    1.9890 C   0  0  0  0  0  0  0  0  0  0  0  0
    1.0491    3.8581    1.0118 N   0  0  0  0  0  0  0  0  0  0  0  0
    0.7921    2.5880    0.6363 C   0  0  0  0  0  0  0  0  0  0  0  0
   -2.2026   -2.8015   -0.7798 C   0  0  0  0  0  0  0  0  0  0  0  0
   -4.2322   -3.0899   -1.4702 H   0  0  0  0  0  0  0  0  0  0  0  0
   -3.2403    0.8623    0.0112 H   0  0  0  0  0  0  0  0  0  0  0  0
   -0.9197    0.1205    0.4465 H   0  0  0  0  0  0  0  0  0  0  0  0
    0.0631   -3.5436    0.1912 H   0  0  0  0  0  0  0  0  0  0  0  0
    2.5113   -3.5813   -0.3030 H   0  0  0  0  0  0  0  0  0  0  0  0
    2.5366   -3.0176    1.4131 H   0  0  0  0  0  0  0  0  0  0  0  0
    4.4270   -2.2973   -0.6429 H   0  0  0  0  0  0  0  0  0  0  0  0
    4.2546   -1.5212    0.9774 H   0  0  0  0  0  0  0  0  0  0  0  0
    2.4918   -1.5507   -2.4170 H   0  0  0  0  0  0  0  0  0  0  0  0
    2.7353    0.2403   -2.6264 H   0  0  0  0  0  0  0  0  0  0  0  0
    4.1671   -0.8644   -2.5153 H   0  0  0  0  0  0  0  0  0  0  0  0
    5.0142    0.5864   -0.7895 H   0  0  0  0  0  0  0  0  0  0  0  0
    3.5385    1.6308   -0.6614 H   0  0  0  0  0  0  0  0  0  0  0  0
    4.1936    0.7806    0.8076 H   0  0  0  0  0  0  0  0  0  0  0  0
    0.6793   -0.2445   -1.7333 H   0  0  0  0  0  0  0  0  0  0  0  0
    0.6201   -0.0667    1.7858 H   0  0  0  0  0  0  0  0  0  0  0  0
    2.4435   -0.1525    1.9304 H   0  0  0  0  0  0  0  0  0  0  0  0
    2.4965    4.5662    2.5127 H   0  0  0  0  0  0  0  0  0  0  0  0
    0.0856    2.2451   -0.1295 H   0  0  0  0  0  0  0  0  0  0  0  0
   -1.9148   -3.8414   -0.9997 H   0  0  0  0  0  0  0  0  0  0  0  0
  1  2  2  0  0  0  0
  1 22  1  0  0  0  0
  1 23  1  0  0  0  0
  2  3  1  0  0  0  0
  2  4  1  0  0  0  0
  4  5  2  0  0  0  0
  4 24  1  0  0  0  0
  5  6  1  0  0  0  0
  5 25  1  0  0  0  0
  6  7  1  0  0  0  0
  6 22  2  0  0  0  0
  7  8  2  0  0  0  0
  7 26  1  0  0  0  0
  8  9  1  0  0  0  0
  8 14  1  0  0  0  0
  9 10  1  0  0  0  0
  9 27  1  0  0  0  0
  9 28  1  0  0  0  0
 10 11  1  0  0  0  0
 10 29  1  0  0  0  0
 10 30  1  0  0  0  0
 11 12  1  0  0  0  0
 11 13  1  0  0  0  0
 11 14  1  0  0  0  0
 12 31  1  0  0  0  0
 12 32  1  0  0  0  0
 12 33  1  0  0  0  0
 13 34  1  0  0  0  0
 13 35  1  0  0  0  0
 13 36  1  0  0  0  0
 14 15  1  0  0  0  0
 14 16  1  0  0  0  0
 15 37  1  0  0  0  0
 16 17  1  0  0  0  0
 16 38  1  0  0  0  0
 16 39  1  0  0  0  0
 17 18  1  0  0  0  0
 17 21  1  0  0  0  0
 18 19  2  0  0  0  0
 19 20  1  0  0  0  0
 19 40  1  0  0  0  0
 20 21  2  0  0  0  0
 21 41  1  0  0  0  0
 22 42  1  0  0  0  0
M  END
