./139158-26-2.hin
 OpenBabel10051109203D

 46 50  0  0  0  0  0  0  0  0999 V2000
   -2.0392   -0.6273    2.6979 C   0  0  0  0  0  0  0  0  0  0  0  0
   -1.9815    0.6577    3.5173 C   0  0  0  0  0  0  0  0  0  0  0  0
   -1.6575    1.8349    2.6031 C   0  0  0  0  0  0  0  0  0  0  0  0
   -0.3123    1.5958    1.9040 C   0  0  0  0  0  0  0  0  0  0  0  0
    0.0085    2.7604    0.9998 C   0  0  0  0  0  0  0  0  0  0  0  0
    1.0106    3.6401    1.2313 N   0  0  0  0  0  0  0  0  0  0  0  0
    0.9689    4.5517    0.2476 N   0  0  0  0  0  0  0  0  0  0  0  0
   -0.0676    4.3229   -0.6742 C   0  0  0  0  0  0  0  0  0  0  0  0
   -0.6868    3.1460   -0.1839 N   0  0  0  0  0  0  0  0  0  0  0  0
   -1.8332    2.5609   -0.8296 C   0  0  0  0  0  0  0  0  0  0  0  0
   -1.5515    1.5869   -1.9389 C   0  0  0  0  0  0  0  0  0  0  0  0
   -2.1813    0.3366   -1.9325 C   0  0  0  0  0  0  0  0  0  0  0  0
   -1.9800   -0.5543   -2.9853 C   0  0  0  0  0  0  0  0  0  0  0  0
   -1.1495   -0.2038   -4.0499 C   0  0  0  0  0  0  0  0  0  0  0  0
   -0.5304    1.0456   -4.0651 C   0  0  0  0  0  0  0  0  0  0  0  0
   -0.7345    1.9424   -3.0170 C   0  0  0  0  0  0  0  0  0  0  0  0
   -0.4398    5.2071   -1.9397 S   0  0  0  0  0  0  0  0  0  0  0  0
   -0.3484    0.2861    1.1108 C   0  0  0  0  0  0  0  0  0  0  0  0
   -0.6864   -0.8756    2.0390 C   0  0  0  0  0  0  0  0  0  0  0  0
    0.3895   -0.9997    3.1115 C   0  0  0  0  0  0  0  0  0  0  0  0
    0.4446    0.2933    3.9166 C   0  0  0  0  0  0  0  0  0  0  0  0
    0.7706    1.4621    2.9934 C   0  0  0  0  0  0  0  0  0  0  0  0
   -0.9033    0.5321    4.5877 C   0  0  0  0  0  0  0  0  0  0  0  0
   -2.8339   -0.5428    1.9133 H   0  0  0  0  0  0  0  0  0  0  0  0
   -2.3006   -1.4891    3.3635 H   0  0  0  0  0  0  0  0  0  0  0  0
   -2.9767    0.8363    4.0057 H   0  0  0  0  0  0  0  0  0  0  0  0
   -1.6000    2.7782    3.2053 H   0  0  0  0  0  0  0  0  0  0  0  0
   -2.4801    1.9554    1.8553 H   0  0  0  0  0  0  0  0  0  0  0  0
    1.6146    5.3086    0.2204 H   0  0  0  0  0  0  0  0  0  0  0  0
   -2.4650    2.0617   -0.0414 H   0  0  0  0  0  0  0  0  0  0  0  0
   -2.4260    3.4208   -1.2773 H   0  0  0  0  0  0  0  0  0  0  0  0
   -2.8453    0.0544   -1.1011 H   0  0  0  0  0  0  0  0  0  0  0  0
   -2.4788   -1.5345   -2.9756 H   0  0  0  0  0  0  0  0  0  0  0  0
   -0.9887   -0.9096   -4.8780 H   0  0  0  0  0  0  0  0  0  0  0  0
    0.1158    1.3311   -4.9084 H   0  0  0  0  0  0  0  0  0  0  0  0
   -0.2727    2.9474   -3.0449 H   0  0  0  0  0  0  0  0  0  0  0  0
    0.6502    0.1119    0.6334 H   0  0  0  0  0  0  0  0  0  0  0  0
   -1.1142    0.3433    0.2961 H   0  0  0  0  0  0  0  0  0  0  0  0
   -0.7298   -1.8234    1.4386 H   0  0  0  0  0  0  0  0  0  0  0  0
    1.3834   -1.1942    2.6335 H   0  0  0  0  0  0  0  0  0  0  0  0
    0.1561   -1.8609    3.7880 H   0  0  0  0  0  0  0  0  0  0  0  0
    1.2450    0.2138    4.7003 H   0  0  0  0  0  0  0  0  0  0  0  0
    1.7685    1.2947    2.5137 H   0  0  0  0  0  0  0  0  0  0  0  0
    0.8234    2.4039    3.5975 H   0  0  0  0  0  0  0  0  0  0  0  0
   -0.8639    1.4684    5.2007 H   0  0  0  0  0  0  0  0  0  0  0  0
   -1.1448   -0.3202    5.2727 H   0  0  0  0  0  0  0  0  0  0  0  0
  1  2  1  0  0  0  0
  1 19  1  0  0  0  0
  1 24  1  0  0  0  0
  1 25  1  0  0  0  0
  2  3  1  0  0  0  0
  2 23  1  0  0  0  0
  2 26  1  0  0  0  0
  3  4  1  0  0  0  0
  3 27  1  0  0  0  0
  3 28  1  0  0  0  0
  4  5  1  0  0  0  0
  4 18  1  0  0  0  0
  4 22  1  0  0  0  0
  5  6  2  0  0  0  0
  5  9  1  0  0  0  0
  6  7  1  0  0  0  0
  7  8  1  0  0  0  0
  7 29  1  0  0  0  0
  8  9  1  0  0  0  0
  8 17  2  0  0  0  0
  9 10  1  0  0  0  0
 10 11  1  0  0  0  0
 10 30  1  0  0  0  0
 10 31  1  0  0  0  0
 11 12  2  0  0  0  0
 11 16  1  0  0  0  0
 12 13  1  0  0  0  0
 12 32  1  0  0  0  0
 13 14  2  0  0  0  0
 13 33  1  0  0  0  0
 14 15  1  0  0  0  0
 14 34  1  0  0  0  0
 15 16  2  0  0  0  0
 15 35  1  0  0  0  0
 16 36  1  0  0  0  0
 18 19  1  0  0  0  0
 18 37  1  0  0  0  0
 18 38  1  0  0  0  0
 19 20  1  0  0  0  0
 19 39  1  0  0  0  0
 20 21  1  0  0  0  0
 20 40  1  0  0  0  0
 20 41  1  0  0  0  0
 21 22  1  0  0  0  0
 21 23  1  0  0  0  0
 21 42  1  0  0  0  0
 22 43  1  0  0  0  0
 22 44  1  0  0  0  0
 23 45  1  0  0  0  0
 23 46  1  0  0  0  0
M  END
