./141078-93-5.hin
 OpenBabel10051109203D

 45 48  0  0  0  0  0  0  0  0999 V2000
   -4.1675   -3.7548   -0.9815 C   0  0  0  0  0  0  0  0  0  0  0  0
   -3.0054   -2.8536   -0.8110 C   0  0  0  0  0  0  0  0  0  0  0  0
   -3.0142   -1.8654    0.1796 C   0  0  0  0  0  0  0  0  0  0  0  0
   -1.9334   -1.0052    0.3420 C   0  0  0  0  0  0  0  0  0  0  0  0
   -0.8082   -1.1234   -0.5002 C   0  0  0  0  0  0  0  0  0  0  0  0
   -0.7992   -2.1149   -1.5036 C   0  0  0  0  0  0  0  0  0  0  0  0
   -1.8887   -2.9671   -1.6470 C   0  0  0  0  0  0  0  0  0  0  0  0
    0.2911   -0.2484   -0.3475 N   0  0  0  0  0  0  0  0  0  0  0  0
    0.2686    1.1606   -0.4173 C   0  0  0  0  0  0  0  0  0  0  0  0
   -0.9530    1.9985   -0.5933 C   0  0  0  0  0  0  0  0  0  0  0  0
   -1.6045    2.0415    0.6854 O   0  0  0  0  0  0  0  0  0  0  0  0
   -2.5328    3.0572    0.8399 C   0  0  0  0  0  0  0  0  0  0  0  0
   -2.8649    3.3593    2.1731 C   0  0  0  0  0  0  0  0  0  0  0  0
   -3.8310    4.3276    2.4240 C   0  0  0  0  0  0  0  0  0  0  0  0
   -4.4564    4.9958    1.3687 C   0  0  0  0  0  0  0  0  0  0  0  0
   -4.1162    4.6920    0.0525 C   0  0  0  0  0  0  0  0  0  0  0  0
   -3.1545    3.7197   -0.2247 C   0  0  0  0  0  0  0  0  0  0  0  0
    1.5559    1.6153   -0.2954 N   0  0  0  0  0  0  0  0  0  0  0  0
    2.3711    0.5988   -0.1624 N   0  0  0  0  0  0  0  0  0  0  0  0
    1.6545   -0.5766   -0.1833 C   0  0  0  0  0  0  0  0  0  0  0  0
    2.2059   -1.9178   -0.0316 C   0  0  0  0  0  0  0  0  0  0  0  0
    3.4407   -2.2191   -0.6239 C   0  0  0  0  0  0  0  0  0  0  0  0
    4.0009   -3.4847   -0.4662 C   0  0  0  0  0  0  0  0  0  0  0  0
    3.3282   -4.4509    0.2886 C   0  0  0  0  0  0  0  0  0  0  0  0
    4.0082   -5.9965    0.4790 Cl  0  0  0  0  0  0  0  0  0  0  0  0
    2.1010   -4.1547    0.8907 C   0  0  0  0  0  0  0  0  0  0  0  0
    1.5436   -2.8885    0.7310 C   0  0  0  0  0  0  0  0  0  0  0  0
   -4.9200   -3.2798   -1.6612 H   0  0  0  0  0  0  0  0  0  0  0  0
   -3.8574   -4.7304   -1.4303 H   0  0  0  0  0  0  0  0  0  0  0  0
   -4.6628   -3.9575    0.0001 H   0  0  0  0  0  0  0  0  0  0  0  0
   -3.8878   -1.7643    0.8424 H   0  0  0  0  0  0  0  0  0  0  0  0
   -1.9660   -0.2206    1.1184 H   0  0  0  0  0  0  0  0  0  0  0  0
    0.0700   -2.2247   -2.1716 H   0  0  0  0  0  0  0  0  0  0  0  0
   -1.8697   -3.7401   -2.4309 H   0  0  0  0  0  0  0  0  0  0  0  0
   -0.6640    3.0326   -0.9228 H   0  0  0  0  0  0  0  0  0  0  0  0
   -1.6534    1.5300   -1.3363 H   0  0  0  0  0  0  0  0  0  0  0  0
   -2.3589    2.8289    2.9918 H   0  0  0  0  0  0  0  0  0  0  0  0
   -4.0990    4.5706    3.4632 H   0  0  0  0  0  0  0  0  0  0  0  0
   -5.2156    5.7629    1.5783 H   0  0  0  0  0  0  0  0  0  0  0  0
   -4.6076    5.2189   -0.7791 H   0  0  0  0  0  0  0  0  0  0  0  0
   -2.8983    3.4842   -1.2665 H   0  0  0  0  0  0  0  0  0  0  0  0
    3.9745   -1.4528   -1.2083 H   0  0  0  0  0  0  0  0  0  0  0  0
    4.9707   -3.7177   -0.9320 H   0  0  0  0  0  0  0  0  0  0  0  0
    1.5777   -4.9138    1.4917 H   0  0  0  0  0  0  0  0  0  0  0  0
    0.5804   -2.6535    1.2105 H   0  0  0  0  0  0  0  0  0  0  0  0
  1  2  1  0  0  0  0
  1 28  1  0  0  0  0
  1 29  1  0  0  0  0
  1 30  1  0  0  0  0
  2  3  2  0  0  0  0
  2  7  1  0  0  0  0
  3  4  1  0  0  0  0
  3 31  1  0  0  0  0
  4  5  2  0  0  0  0
  4 32  1  0  0  0  0
  5  6  1  0  0  0  0
  5  8  1  0  0  0  0
  6  7  2  0  0  0  0
  6 33  1  0  0  0  0
  7 34  1  0  0  0  0
  8  9  1  0  0  0  0
  8 20  1  0  0  0  0
  9 10  1  0  0  0  0
  9 18  2  0  0  0  0
 10 11  1  0  0  0  0
 10 35  1  0  0  0  0
 10 36  1  0  0  0  0
 11 12  1  0  0  0  0
 12 13  2  0  0  0  0
 12 17  1  0  0  0  0
 13 14  1  0  0  0  0
 13 37  1  0  0  0  0
 14 15  2  0  0  0  0
 14 38  1  0  0  0  0
 15 16  1  0  0  0  0
 15 39  1  0  0  0  0
 16 17  2  0  0  0  0
 16 40  1  0  0  0  0
 17 41  1  0  0  0  0
 18 19  1  0  0  0  0
 19 20  2  0  0  0  0
 20 21  1  0  0  0  0
 21 22  2  0  0  0  0
 21 27  1  0  0  0  0
 22 23  1  0  0  0  0
 22 42  1  0  0  0  0
 23 24  2  0  0  0  0
 23 43  1  0  0  0  0
 24 25  1  0  0  0  0
 24 26  1  0  0  0  0
 26 27  2  0  0  0  0
 26 44  1  0  0  0  0
 27 45  1  0  0  0  0
M  END
