./141078-94-6.hin
 OpenBabel10051109203D

 45 48  0  0  0  0  0  0  0  0999 V2000
   -3.3577   -4.1968    1.4382 C   0  0  0  0  0  0  0  0  0  0  0  0
   -2.3367   -3.2837    0.8761 C   0  0  0  0  0  0  0  0  0  0  0  0
   -2.1456   -3.1957   -0.5076 C   0  0  0  0  0  0  0  0  0  0  0  0
   -1.1999   -2.3281   -1.0436 C   0  0  0  0  0  0  0  0  0  0  0  0
   -0.4200   -1.5219   -0.1884 C   0  0  0  0  0  0  0  0  0  0  0  0
   -0.6111   -1.6077    1.2055 C   0  0  0  0  0  0  0  0  0  0  0  0
   -1.5598   -2.4847    1.7220 C   0  0  0  0  0  0  0  0  0  0  0  0
    0.5330   -0.6262   -0.7285 N   0  0  0  0  0  0  0  0  0  0  0  0
    0.2748    0.6364   -1.3009 C   0  0  0  0  0  0  0  0  0  0  0  0
   -1.0782    1.2378   -1.4826 C   0  0  0  0  0  0  0  0  0  0  0  0
   -1.5327    1.6160   -0.1761 O   0  0  0  0  0  0  0  0  0  0  0  0
   -2.7928    2.1844   -0.1276 C   0  0  0  0  0  0  0  0  0  0  0  0
   -3.2274    2.5252    1.1680 C   0  0  0  0  0  0  0  0  0  0  0  0
   -4.4819    3.1007    1.3297 C   0  0  0  0  0  0  0  0  0  0  0  0
   -5.3017    3.3389    0.2235 C   0  0  0  0  0  0  0  0  0  0  0  0
   -4.8614    3.0006   -1.0533 C   0  0  0  0  0  0  0  0  0  0  0  0
   -3.6054    2.4213   -1.2419 C   0  0  0  0  0  0  0  0  0  0  0  0
    1.4731    1.1938   -1.6630 N   0  0  0  0  0  0  0  0  0  0  0  0
    2.4486    0.3724   -1.3632 N   0  0  0  0  0  0  0  0  0  0  0  0
    1.9361   -0.7663   -0.7825 C   0  0  0  0  0  0  0  0  0  0  0  0
    2.7056   -1.9139   -0.3182 C   0  0  0  0  0  0  0  0  0  0  0  0
    2.2188   -3.2196   -0.4596 C   0  0  0  0  0  0  0  0  0  0  0  0
    2.9755   -4.3049   -0.0323 C   0  0  0  0  0  0  0  0  0  0  0  0
    4.2415   -4.0847    0.5418 C   0  0  0  0  0  0  0  0  0  0  0  0
    4.9831   -5.1365    0.9615 F   0  0  0  0  0  0  0  0  0  0  0  0
    4.7391   -2.7754    0.6795 C   0  0  0  0  0  0  0  0  0  0  0  0
    3.9712   -1.6994    0.2485 C   0  0  0  0  0  0  0  0  0  0  0  0
   -3.5666   -5.0457    0.7417 H   0  0  0  0  0  0  0  0  0  0  0  0
   -4.3135   -3.6384    1.6072 H   0  0  0  0  0  0  0  0  0  0  0  0
   -3.0207   -4.6167    2.4182 H   0  0  0  0  0  0  0  0  0  0  0  0
   -2.7510   -3.8198   -1.1831 H   0  0  0  0  0  0  0  0  0  0  0  0
   -1.0676   -2.2750   -2.1357 H   0  0  0  0  0  0  0  0  0  0  0  0
   -0.0173   -0.9808    1.8899 H   0  0  0  0  0  0  0  0  0  0  0  0
   -1.7016   -2.5459    2.8123 H   0  0  0  0  0  0  0  0  0  0  0  0
   -1.7848    0.4839   -1.9245 H   0  0  0  0  0  0  0  0  0  0  0  0
   -1.0113    2.1473   -2.1386 H   0  0  0  0  0  0  0  0  0  0  0  0
   -2.5688    2.3344    2.0266 H   0  0  0  0  0  0  0  0  0  0  0  0
   -4.8294    3.3711    2.3382 H   0  0  0  0  0  0  0  0  0  0  0  0
   -6.2922    3.7948    0.3627 H   0  0  0  0  0  0  0  0  0  0  0  0
   -5.5042    3.1906   -1.9260 H   0  0  0  0  0  0  0  0  0  0  0  0
   -3.2732    2.1653   -2.2568 H   0  0  0  0  0  0  0  0  0  0  0  0
    1.2300   -3.3952   -0.9137 H   0  0  0  0  0  0  0  0  0  0  0  0
    2.5971   -5.3313   -0.1412 H   0  0  0  0  0  0  0  0  0  0  0  0
    5.7319   -2.6137    1.1241 H   0  0  0  0  0  0  0  0  0  0  0  0
    4.3639   -0.6745    0.3488 H   0  0  0  0  0  0  0  0  0  0  0  0
  1  2  1  0  0  0  0
  1 28  1  0  0  0  0
  1 29  1  0  0  0  0
  1 30  1  0  0  0  0
  2  3  2  0  0  0  0
  2  7  1  0  0  0  0
  3  4  1  0  0  0  0
  3 31  1  0  0  0  0
  4  5  2  0  0  0  0
  4 32  1  0  0  0  0
  5  6  1  0  0  0  0
  5  8  1  0  0  0  0
  6  7  2  0  0  0  0
  6 33  1  0  0  0  0
  7 34  1  0  0  0  0
  8  9  1  0  0  0  0
  8 20  1  0  0  0  0
  9 10  1  0  0  0  0
  9 18  2  0  0  0  0
 10 11  1  0  0  0  0
 10 35  1  0  0  0  0
 10 36  1  0  0  0  0
 11 12  1  0  0  0  0
 12 13  2  0  0  0  0
 12 17  1  0  0  0  0
 13 14  1  0  0  0  0
 13 37  1  0  0  0  0
 14 15  2  0  0  0  0
 14 38  1  0  0  0  0
 15 16  1  0  0  0  0
 15 39  1  0  0  0  0
 16 17  2  0  0  0  0
 16 40  1  0  0  0  0
 17 41  1  0  0  0  0
 18 19  1  0  0  0  0
 19 20  2  0  0  0  0
 20 21  1  0  0  0  0
 21 22  2  0  0  0  0
 21 27  1  0  0  0  0
 22 23  1  0  0  0  0
 22 42  1  0  0  0  0
 23 24  2  0  0  0  0
 23 43  1  0  0  0  0
 24 25  1  0  0  0  0
 24 26  1  0  0  0  0
 26 27  2  0  0  0  0
 26 44  1  0  0  0  0
 27 45  1  0  0  0  0
M  END
