./141078-95-7.hin
 OpenBabel10051109203D

 45 48  0  0  0  0  0  0  0  0999 V2000
   -3.7465   -4.6048    0.7186 C   0  0  0  0  0  0  0  0  0  0  0  0
   -2.8742   -3.4596    0.3734 C   0  0  0  0  0  0  0  0  0  0  0  0
   -1.7899   -3.6311   -0.4948 C   0  0  0  0  0  0  0  0  0  0  0  0
   -0.9560   -2.5659   -0.8152 C   0  0  0  0  0  0  0  0  0  0  0  0
   -1.1957   -1.2912   -0.2599 C   0  0  0  0  0  0  0  0  0  0  0  0
   -2.2864   -1.1162    0.6167 C   0  0  0  0  0  0  0  0  0  0  0  0
   -3.1114   -2.1941    0.9205 C   0  0  0  0  0  0  0  0  0  0  0  0
   -0.3549   -0.2028   -0.5831 N   0  0  0  0  0  0  0  0  0  0  0  0
   -0.7443    1.0804   -1.0205 C   0  0  0  0  0  0  0  0  0  0  0  0
   -2.1502    1.5600   -1.1611 C   0  0  0  0  0  0  0  0  0  0  0  0
   -2.5747    1.9672    0.1483 O   0  0  0  0  0  0  0  0  0  0  0  0
   -3.6715    2.8122    0.1755 C   0  0  0  0  0  0  0  0  0  0  0  0
   -3.8255    3.5476    1.3646 C   0  0  0  0  0  0  0  0  0  0  0  0
   -4.9327    4.3774    1.5046 C   0  0  0  0  0  0  0  0  0  0  0  0
   -5.8727    4.4855    0.4769 C   0  0  0  0  0  0  0  0  0  0  0  0
   -5.7072    3.7564   -0.6984 C   0  0  0  0  0  0  0  0  0  0  0  0
   -4.6082    2.9120   -0.8597 C   0  0  0  0  0  0  0  0  0  0  0  0
    0.3895    1.8001   -1.2980 N   0  0  0  0  0  0  0  0  0  0  0  0
    1.4478    1.0602   -1.0752 N   0  0  0  0  0  0  0  0  0  0  0  0
    1.0553   -0.1804   -0.6326 C   0  0  0  0  0  0  0  0  0  0  0  0
    1.9418   -1.2833   -0.2713 C   0  0  0  0  0  0  0  0  0  0  0  0
    2.0872   -1.7085    1.0586 C   0  0  0  0  0  0  0  0  0  0  0  0
    1.2175   -0.9697    2.3130 Cl  0  0  0  0  0  0  0  0  0  0  0  0
    2.9670   -2.7501    1.3740 C   0  0  0  0  0  0  0  0  0  0  0  0
    3.7067   -3.3555    0.3554 C   0  0  0  0  0  0  0  0  0  0  0  0
    4.7726   -4.6213    0.7356 Cl  0  0  0  0  0  0  0  0  0  0  0  0
    3.5821   -2.9275   -0.9707 C   0  0  0  0  0  0  0  0  0  0  0  0
    2.7027   -1.8931   -1.2773 C   0  0  0  0  0  0  0  0  0  0  0  0
   -3.8286   -5.3175   -0.1388 H   0  0  0  0  0  0  0  0  0  0  0  0
   -4.7738   -4.2593    0.9921 H   0  0  0  0  0  0  0  0  0  0  0  0
   -3.3186   -5.1577    1.5934 H   0  0  0  0  0  0  0  0  0  0  0  0
   -1.5928   -4.6220   -0.9325 H   0  0  0  0  0  0  0  0  0  0  0  0
   -0.1040   -2.7248   -1.4956 H   0  0  0  0  0  0  0  0  0  0  0  0
   -2.4908   -0.1257    1.0601 H   0  0  0  0  0  0  0  0  0  0  0  0
   -3.9610   -2.0450    1.6051 H   0  0  0  0  0  0  0  0  0  0  0  0
   -2.8218    0.7296   -1.5105 H   0  0  0  0  0  0  0  0  0  0  0  0
   -2.1885    2.4254   -1.8758 H   0  0  0  0  0  0  0  0  0  0  0  0
   -3.0735    3.4553    2.1607 H   0  0  0  0  0  0  0  0  0  0  0  0
   -5.0637    4.9561    2.4314 H   0  0  0  0  0  0  0  0  0  0  0  0
   -6.7419    5.1480    0.5962 H   0  0  0  0  0  0  0  0  0  0  0  0
   -6.4468    3.8421   -1.5085 H   0  0  0  0  0  0  0  0  0  0  0  0
   -4.4903    2.3366   -1.7879 H   0  0  0  0  0  0  0  0  0  0  0  0
    3.0778   -3.0831    2.4183 H   0  0  0  0  0  0  0  0  0  0  0  0
    4.1776   -3.3994   -1.7672 H   0  0  0  0  0  0  0  0  0  0  0  0
    2.6093   -1.5399   -2.3167 H   0  0  0  0  0  0  0  0  0  0  0  0
  1  2  1  0  0  0  0
  1 29  1  0  0  0  0
  1 30  1  0  0  0  0
  1 31  1  0  0  0  0
  2  3  2  0  0  0  0
  2  7  1  0  0  0  0
  3  4  1  0  0  0  0
  3 32  1  0  0  0  0
  4  5  2  0  0  0  0
  4 33  1  0  0  0  0
  5  6  1  0  0  0  0
  5  8  1  0  0  0  0
  6  7  2  0  0  0  0
  6 34  1  0  0  0  0
  7 35  1  0  0  0  0
  8  9  1  0  0  0  0
  8 20  1  0  0  0  0
  9 10  1  0  0  0  0
  9 18  2  0  0  0  0
 10 11  1  0  0  0  0
 10 36  1  0  0  0  0
 10 37  1  0  0  0  0
 11 12  1  0  0  0  0
 12 13  2  0  0  0  0
 12 17  1  0  0  0  0
 13 14  1  0  0  0  0
 13 38  1  0  0  0  0
 14 15  2  0  0  0  0
 14 39  1  0  0  0  0
 15 16  1  0  0  0  0
 15 40  1  0  0  0  0
 16 17  2  0  0  0  0
 16 41  1  0  0  0  0
 17 42  1  0  0  0  0
 18 19  1  0  0  0  0
 19 20  2  0  0  0  0
 20 21  1  0  0  0  0
 21 22  2  0  0  0  0
 21 28  1  0  0  0  0
 22 23  1  0  0  0  0
 22 24  1  0  0  0  0
 24 25  2  0  0  0  0
 24 43  1  0  0  0  0
 25 26  1  0  0  0  0
 25 27  1  0  0  0  0
 27 28  2  0  0  0  0
 27 44  1  0  0  0  0
 28 45  1  0  0  0  0
M  END
