./141079-02-9.hin
 OpenBabel10051109203D

 48 51  0  0  0  0  0  0  0  0999 V2000
   -4.8410   -7.2953    1.1383 C   0  0  0  0  0  0  0  0  0  0  0  0
   -3.8751   -6.1996    0.8960 C   0  0  0  0  0  0  0  0  0  0  0  0
   -3.1755   -5.6312    1.9704 C   0  0  0  0  0  0  0  0  0  0  0  0
   -2.2544   -4.6129    1.7622 C   0  0  0  0  0  0  0  0  0  0  0  0
   -2.0339   -4.1467    0.4533 C   0  0  0  0  0  0  0  0  0  0  0  0
   -1.1416   -3.0927    0.3516 O   0  0  0  0  0  0  0  0  0  0  0  0
   -0.6171   -2.8617   -0.9647 C   0  0  0  0  0  0  0  0  0  0  0  0
    0.5741   -1.9797   -0.7960 C   0  0  0  0  0  0  0  0  0  0  0  0
    1.8875   -2.3663   -0.8556 N   0  0  0  0  0  0  0  0  0  0  0  0
    2.6616   -1.3262   -0.6688 N   0  0  0  0  0  0  0  0  0  0  0  0
    1.8904   -0.2034   -0.4697 C   0  0  0  0  0  0  0  0  0  0  0  0
    0.5350   -0.5914   -0.5469 N   0  0  0  0  0  0  0  0  0  0  0  0
   -0.6153    0.2271   -0.4791 C   0  0  0  0  0  0  0  0  0  0  0  0
   -1.6369   -0.0575    0.4503 C   0  0  0  0  0  0  0  0  0  0  0  0
   -2.7699    0.7480    0.5040 C   0  0  0  0  0  0  0  0  0  0  0  0
   -2.9143    1.8447   -0.3524 C   0  0  0  0  0  0  0  0  0  0  0  0
   -4.1152    2.7072   -0.2767 C   0  0  0  0  0  0  0  0  0  0  0  0
   -1.9010    2.1221   -1.2775 C   0  0  0  0  0  0  0  0  0  0  0  0
   -0.7623    1.3276   -1.3499 C   0  0  0  0  0  0  0  0  0  0  0  0
    2.3877    1.1396   -0.1982 C   0  0  0  0  0  0  0  0  0  0  0  0
    3.5399    1.5873   -0.8611 C   0  0  0  0  0  0  0  0  0  0  0  0
    4.0539    2.8524   -0.5983 C   0  0  0  0  0  0  0  0  0  0  0  0
    3.4141    3.6811    0.3423 C   0  0  0  0  0  0  0  0  0  0  0  0
    3.9078    4.9148    0.6010 F   0  0  0  0  0  0  0  0  0  0  0  0
    2.2633    3.2317    1.0169 C   0  0  0  0  0  0  0  0  0  0  0  0
    1.7601    1.9646    0.7441 C   0  0  0  0  0  0  0  0  0  0  0  0
   -2.7236   -4.7017   -0.6296 C   0  0  0  0  0  0  0  0  0  0  0  0
   -3.6394   -5.7276   -0.3980 C   0  0  0  0  0  0  0  0  0  0  0  0
   -5.5183   -7.4396    0.2611 H   0  0  0  0  0  0  0  0  0  0  0  0
   -4.2943   -8.2549    1.3208 H   0  0  0  0  0  0  0  0  0  0  0  0
   -5.4692   -7.0761    2.0371 H   0  0  0  0  0  0  0  0  0  0  0  0
   -3.3562   -6.0005    2.9915 H   0  0  0  0  0  0  0  0  0  0  0  0
   -1.6977   -4.1662    2.5979 H   0  0  0  0  0  0  0  0  0  0  0  0
   -1.4051   -2.3514   -1.5818 H   0  0  0  0  0  0  0  0  0  0  0  0
   -0.3118   -3.8321   -1.4406 H   0  0  0  0  0  0  0  0  0  0  0  0
   -1.5492   -0.9293    1.1223 H   0  0  0  0  0  0  0  0  0  0  0  0
   -3.5626    0.5141    1.2318 H   0  0  0  0  0  0  0  0  0  0  0  0
   -3.9108    3.5853    0.3874 H   0  0  0  0  0  0  0  0  0  0  0  0
   -4.3943    3.0922   -1.2885 H   0  0  0  0  0  0  0  0  0  0  0  0
   -4.9871    2.1471    0.1424 H   0  0  0  0  0  0  0  0  0  0  0  0
   -2.0060    2.9793   -1.9605 H   0  0  0  0  0  0  0  0  0  0  0  0
    0.0231    1.5663   -2.0845 H   0  0  0  0  0  0  0  0  0  0  0  0
    4.0465    0.9324   -1.5884 H   0  0  0  0  0  0  0  0  0  0  0  0
    4.9571    3.2094   -1.1141 H   0  0  0  0  0  0  0  0  0  0  0  0
    1.7754    3.8828    1.7563 H   0  0  0  0  0  0  0  0  0  0  0  0
    0.8634    1.6109    1.2775 H   0  0  0  0  0  0  0  0  0  0  0  0
   -2.5567   -4.3416   -1.6539 H   0  0  0  0  0  0  0  0  0  0  0  0
   -4.1829   -6.1672   -1.2483 H   0  0  0  0  0  0  0  0  0  0  0  0
  1  2  1  0  0  0  0
  1 29  1  0  0  0  0
  1 30  1  0  0  0  0
  1 31  1  0  0  0  0
  2  3  2  0  0  0  0
  2 28  1  0  0  0  0
  3  4  1  0  0  0  0
  3 32  1  0  0  0  0
  4  5  2  0  0  0  0
  4 33  1  0  0  0  0
  5  6  1  0  0  0  0
  5 27  1  0  0  0  0
  6  7  1  0  0  0  0
  7  8  1  0  0  0  0
  7 34  1  0  0  0  0
  7 35  1  0  0  0  0
  8  9  2  0  0  0  0
  8 12  1  0  0  0  0
  9 10  1  0  0  0  0
 10 11  2  0  0  0  0
 11 12  1  0  0  0  0
 11 20  1  0  0  0  0
 12 13  1  0  0  0  0
 13 14  2  0  0  0  0
 13 19  1  0  0  0  0
 14 15  1  0  0  0  0
 14 36  1  0  0  0  0
 15 16  2  0  0  0  0
 15 37  1  0  0  0  0
 16 17  1  0  0  0  0
 16 18  1  0  0  0  0
 17 38  1  0  0  0  0
 17 39  1  0  0  0  0
 17 40  1  0  0  0  0
 18 19  2  0  0  0  0
 18 41  1  0  0  0  0
 19 42  1  0  0  0  0
 20 21  2  0  0  0  0
 20 26  1  0  0  0  0
 21 22  1  0  0  0  0
 21 43  1  0  0  0  0
 22 23  2  0  0  0  0
 22 44  1  0  0  0  0
 23 24  1  0  0  0  0
 23 25  1  0  0  0  0
 25 26  2  0  0  0  0
 25 45  1  0  0  0  0
 26 46  1  0  0  0  0
 27 28  2  0  0  0  0
 27 47  1  0  0  0  0
 28 48  1  0  0  0  0
M  END
