./141079-06-3.hin
 OpenBabel10051109203D

 51 54  0  0  0  0  0  0  0  0999 V2000
   -3.0681   -4.2420   -0.4021 C   0  0  0  0  0  0  0  0  0  0  0  0
   -1.8221   -3.4428   -0.4309 C   0  0  0  0  0  0  0  0  0  0  0  0
   -1.3682   -2.8757   -1.6273 C   0  0  0  0  0  0  0  0  0  0  0  0
   -0.1923   -2.1341   -1.6646 C   0  0  0  0  0  0  0  0  0  0  0  0
    0.5574   -1.9437   -0.4850 C   0  0  0  0  0  0  0  0  0  0  0  0
    0.1013   -2.5114    0.7218 C   0  0  0  0  0  0  0  0  0  0  0  0
   -1.0760   -3.2529    0.7374 C   0  0  0  0  0  0  0  0  0  0  0  0
    1.7456   -1.1764   -0.5133 N   0  0  0  0  0  0  0  0  0  0  0  0
    1.8393    0.2307   -0.5495 C   0  0  0  0  0  0  0  0  0  0  0  0
    0.6813    1.1676   -0.6133 C   0  0  0  0  0  0  0  0  0  0  0  0
    0.0767    1.1530    0.6883 O   0  0  0  0  0  0  0  0  0  0  0  0
   -1.0486    1.9414    0.8313 C   0  0  0  0  0  0  0  0  0  0  0  0
   -1.5818    2.7582   -0.1694 C   0  0  0  0  0  0  0  0  0  0  0  0
   -2.7316    3.5174    0.0860 C   0  0  0  0  0  0  0  0  0  0  0  0
   -3.2907    4.3834   -0.9779 C   0  0  0  0  0  0  0  0  0  0  0  0
   -3.3295    3.4406    1.3516 C   0  0  0  0  0  0  0  0  0  0  0  0
   -4.7302    4.3418    1.7049 Cl  0  0  0  0  0  0  0  0  0  0  0  0
   -2.7888    2.6235    2.3528 C   0  0  0  0  0  0  0  0  0  0  0  0
   -1.6504    1.8712    2.1029 C   0  0  0  0  0  0  0  0  0  0  0  0
    3.1662    0.5705   -0.5260 N   0  0  0  0  0  0  0  0  0  0  0  0
    3.8975   -0.5158   -0.4841 N   0  0  0  0  0  0  0  0  0  0  0  0
    3.0824   -1.6259   -0.4721 C   0  0  0  0  0  0  0  0  0  0  0  0
    3.5217   -3.0156   -0.4372 C   0  0  0  0  0  0  0  0  0  0  0  0
    4.6666   -3.3510    0.3001 C   0  0  0  0  0  0  0  0  0  0  0  0
    5.1154   -4.6687    0.3259 C   0  0  0  0  0  0  0  0  0  0  0  0
    4.4365   -5.6678   -0.3818 C   0  0  0  0  0  0  0  0  0  0  0  0
    4.9276   -7.0645   -0.3644 C   0  0  0  0  0  0  0  0  0  0  0  0
    3.2968   -5.3261   -1.1196 C   0  0  0  0  0  0  0  0  0  0  0  0
    2.8419   -4.0109   -1.1506 C   0  0  0  0  0  0  0  0  0  0  0  0
   -2.8262   -5.3278   -0.5295 H   0  0  0  0  0  0  0  0  0  0  0  0
   -3.6007   -4.1148    0.5727 H   0  0  0  0  0  0  0  0  0  0  0  0
   -3.7600   -3.9383   -1.2258 H   0  0  0  0  0  0  0  0  0  0  0  0
   -1.9487   -3.0158   -2.5523 H   0  0  0  0  0  0  0  0  0  0  0  0
    0.1459   -1.6978   -2.6176 H   0  0  0  0  0  0  0  0  0  0  0  0
    0.6691   -2.3688    1.6552 H   0  0  0  0  0  0  0  0  0  0  0  0
   -1.4255   -3.6914    1.6850 H   0  0  0  0  0  0  0  0  0  0  0  0
    1.0369    2.2060   -0.8524 H   0  0  0  0  0  0  0  0  0  0  0  0
   -0.0639    0.8187   -1.3787 H   0  0  0  0  0  0  0  0  0  0  0  0
   -1.1116    2.8223   -1.1609 H   0  0  0  0  0  0  0  0  0  0  0  0
   -3.3088    5.4497   -0.6376 H   0  0  0  0  0  0  0  0  0  0  0  0
   -2.6839    4.3213   -1.9140 H   0  0  0  0  0  0  0  0  0  0  0  0
   -4.3406    4.0761   -1.2144 H   0  0  0  0  0  0  0  0  0  0  0  0
   -3.2674    2.5768    3.3436 H   0  0  0  0  0  0  0  0  0  0  0  0
   -1.2102    1.2271    2.8770 H   0  0  0  0  0  0  0  0  0  0  0  0
    5.2138   -2.5719    0.8539 H   0  0  0  0  0  0  0  0  0  0  0  0
    6.0139   -4.9263    0.9069 H   0  0  0  0  0  0  0  0  0  0  0  0
    4.0863   -7.7876   -0.5018 H   0  0  0  0  0  0  0  0  0  0  0  0
    5.6614   -7.2192   -1.1958 H   0  0  0  0  0  0  0  0  0  0  0  0
    5.4404   -7.2967    0.6015 H   0  0  0  0  0  0  0  0  0  0  0  0
    2.7573   -6.1029   -1.6819 H   0  0  0  0  0  0  0  0  0  0  0  0
    1.9469   -3.7560   -1.7396 H   0  0  0  0  0  0  0  0  0  0  0  0
  1  2  1  0  0  0  0
  1 30  1  0  0  0  0
  1 31  1  0  0  0  0
  1 32  1  0  0  0  0
  2  3  2  0  0  0  0
  2  7  1  0  0  0  0
  3  4  1  0  0  0  0
  3 33  1  0  0  0  0
  4  5  2  0  0  0  0
  4 34  1  0  0  0  0
  5  6  1  0  0  0  0
  5  8  1  0  0  0  0
  6  7  2  0  0  0  0
  6 35  1  0  0  0  0
  7 36  1  0  0  0  0
  8  9  1  0  0  0  0
  8 22  1  0  0  0  0
  9 10  1  0  0  0  0
  9 20  2  0  0  0  0
 10 11  1  0  0  0  0
 10 37  1  0  0  0  0
 10 38  1  0  0  0  0
 11 12  1  0  0  0  0
 12 13  2  0  0  0  0
 12 19  1  0  0  0  0
 13 14  1  0  0  0  0
 13 39  1  0  0  0  0
 14 15  1  0  0  0  0
 14 16  2  0  0  0  0
 15 40  1  0  0  0  0
 15 41  1  0  0  0  0
 15 42  1  0  0  0  0
 16 17  1  0  0  0  0
 16 18  1  0  0  0  0
 18 19  2  0  0  0  0
 18 43  1  0  0  0  0
 19 44  1  0  0  0  0
 20 21  1  0  0  0  0
 21 22  2  0  0  0  0
 22 23  1  0  0  0  0
 23 24  2  0  0  0  0
 23 29  1  0  0  0  0
 24 25  1  0  0  0  0
 24 45  1  0  0  0  0
 25 26  2  0  0  0  0
 25 46  1  0  0  0  0
 26 27  1  0  0  0  0
 26 28  1  0  0  0  0
 27 47  1  0  0  0  0
 27 48  1  0  0  0  0
 27 49  1  0  0  0  0
 28 29  2  0  0  0  0
 28 50  1  0  0  0  0
 29 51  1  0  0  0  0
M  END
