./141079-08-5.hin
 OpenBabel10051109203D

 48 51  0  0  0  0  0  0  0  0999 V2000
   -3.1333   -4.2773   -0.4904 C   0  0  0  0  0  0  0  0  0  0  0  0
   -1.8785   -3.4916   -0.4925 C   0  0  0  0  0  0  0  0  0  0  0  0
   -1.3932   -2.9276   -1.6780 C   0  0  0  0  0  0  0  0  0  0  0  0
   -0.2234   -2.1753   -1.6837 C   0  0  0  0  0  0  0  0  0  0  0  0
    0.4882   -1.9718   -0.4830 C   0  0  0  0  0  0  0  0  0  0  0  0
    0.0013   -2.5378    0.7126 C   0  0  0  0  0  0  0  0  0  0  0  0
   -1.1688   -3.2904    0.6965 C   0  0  0  0  0  0  0  0  0  0  0  0
    1.6706   -1.1945   -0.4797 N   0  0  0  0  0  0  0  0  0  0  0  0
    1.7544    0.2131   -0.5016 C   0  0  0  0  0  0  0  0  0  0  0  0
    0.5907    1.1425   -0.5786 C   0  0  0  0  0  0  0  0  0  0  0  0
   -0.0393    1.1083    0.7102 O   0  0  0  0  0  0  0  0  0  0  0  0
   -1.1610    1.9038    0.8462 C   0  0  0  0  0  0  0  0  0  0  0  0
   -1.7725    1.8345    2.1131 C   0  0  0  0  0  0  0  0  0  0  0  0
   -2.9099    2.5910    2.3551 C   0  0  0  0  0  0  0  0  0  0  0  0
   -3.4397    3.4113    1.3507 C   0  0  0  0  0  0  0  0  0  0  0  0
   -4.8392    4.3178    1.6944 Cl  0  0  0  0  0  0  0  0  0  0  0  0
   -2.8318    3.4870    0.0898 C   0  0  0  0  0  0  0  0  0  0  0  0
   -1.6832    2.7235   -0.1577 C   0  0  0  0  0  0  0  0  0  0  0  0
    3.0784    0.5627   -0.4497 N   0  0  0  0  0  0  0  0  0  0  0  0
    3.8168   -0.5181   -0.4030 N   0  0  0  0  0  0  0  0  0  0  0  0
    3.0097   -1.6341   -0.4163 C   0  0  0  0  0  0  0  0  0  0  0  0
    3.4607   -3.0198   -0.3825 C   0  0  0  0  0  0  0  0  0  0  0  0
    4.5988   -3.3459    0.3707 C   0  0  0  0  0  0  0  0  0  0  0  0
    5.0674   -4.6545    0.4042 C   0  0  0  0  0  0  0  0  0  0  0  0
    4.3952   -5.6530   -0.3253 C   0  0  0  0  0  0  0  0  0  0  0  0
    4.8449   -6.9294   -0.2953 F   0  0  0  0  0  0  0  0  0  0  0  0
    3.2573   -5.3290   -1.0877 C   0  0  0  0  0  0  0  0  0  0  0  0
    2.8003   -4.0162   -1.1126 C   0  0  0  0  0  0  0  0  0  0  0  0
   -3.3795    4.3562   -0.9774 C   0  0  0  0  0  0  0  0  0  0  0  0
   -3.9903   -3.6224   -0.1894 H   0  0  0  0  0  0  0  0  0  0  0  0
   -3.3505   -4.6941   -1.5046 H   0  0  0  0  0  0  0  0  0  0  0  0
   -3.0705   -5.1255    0.2355 H   0  0  0  0  0  0  0  0  0  0  0  0
   -1.9428   -3.0796   -2.6199 H   0  0  0  0  0  0  0  0  0  0  0  0
    0.1394   -1.7409   -2.6286 H   0  0  0  0  0  0  0  0  0  0  0  0
    0.5390   -2.3850    1.6621 H   0  0  0  0  0  0  0  0  0  0  0  0
   -1.5414   -3.7300    1.6349 H   0  0  0  0  0  0  0  0  0  0  0  0
    0.9438    2.1858   -0.7997 H   0  0  0  0  0  0  0  0  0  0  0  0
   -0.1364    0.7965   -1.3624 H   0  0  0  0  0  0  0  0  0  0  0  0
   -1.3407    1.1881    2.8901 H   0  0  0  0  0  0  0  0  0  0  0  0
   -3.3961    2.5453    3.3423 H   0  0  0  0  0  0  0  0  0  0  0  0
   -1.2056    2.7865   -1.1457 H   0  0  0  0  0  0  0  0  0  0  0  0
    5.1296   -2.5621    0.9354 H   0  0  0  0  0  0  0  0  0  0  0  0
    5.9590   -4.9162    0.9924 H   0  0  0  0  0  0  0  0  0  0  0  0
    2.7421   -6.1142   -1.6591 H   0  0  0  0  0  0  0  0  0  0  0  0
    1.9122   -3.7642   -1.7146 H   0  0  0  0  0  0  0  0  0  0  0  0
   -2.7665    4.2920   -1.9094 H   0  0  0  0  0  0  0  0  0  0  0  0
   -4.4292    4.0540   -1.2216 H   0  0  0  0  0  0  0  0  0  0  0  0
   -3.3951    5.4223   -0.6365 H   0  0  0  0  0  0  0  0  0  0  0  0
  1  2  1  0  0  0  0
  1 30  1  0  0  0  0
  1 31  1  0  0  0  0
  1 32  1  0  0  0  0
  2  3  2  0  0  0  0
  2  7  1  0  0  0  0
  3  4  1  0  0  0  0
  3 33  1  0  0  0  0
  4  5  2  0  0  0  0
  4 34  1  0  0  0  0
  5  6  1  0  0  0  0
  5  8  1  0  0  0  0
  6  7  2  0  0  0  0
  6 35  1  0  0  0  0
  7 36  1  0  0  0  0
  8  9  1  0  0  0  0
  8 21  1  0  0  0  0
  9 10  1  0  0  0  0
  9 19  2  0  0  0  0
 10 11  1  0  0  0  0
 10 37  1  0  0  0  0
 10 38  1  0  0  0  0
 11 12  1  0  0  0  0
 12 13  2  0  0  0  0
 12 18  1  0  0  0  0
 13 14  1  0  0  0  0
 13 39  1  0  0  0  0
 14 15  2  0  0  0  0
 14 40  1  0  0  0  0
 15 16  1  0  0  0  0
 15 17  1  0  0  0  0
 17 18  2  0  0  0  0
 17 29  1  0  0  0  0
 18 41  1  0  0  0  0
 19 20  1  0  0  0  0
 20 21  2  0  0  0  0
 21 22  1  0  0  0  0
 22 23  2  0  0  0  0
 22 28  1  0  0  0  0
 23 24  1  0  0  0  0
 23 42  1  0  0  0  0
 24 25  2  0  0  0  0
 24 43  1  0  0  0  0
 25 26  1  0  0  0  0
 25 27  1  0  0  0  0
 27 28  2  0  0  0  0
 27 44  1  0  0  0  0
 28 45  1  0  0  0  0
 29 46  1  0  0  0  0
 29 47  1  0  0  0  0
 29 48  1  0  0  0  0
M  END
