./141079-13-2.hin
 OpenBabel10051109203D

 42 45  0  0  0  0  0  0  0  0999 V2000
   -3.6293   -3.4476   -1.5983 F   0  0  0  0  0  0  0  0  0  0  0  0
   -2.6204   -2.6125   -1.2658 C   0  0  0  0  0  0  0  0  0  0  0  0
   -2.7440   -1.6950   -0.1998 C   0  0  0  0  0  0  0  0  0  0  0  0
   -4.1672   -1.5947    0.7151 Cl  0  0  0  0  0  0  0  0  0  0  0  0
   -1.6809   -0.8479    0.1197 C   0  0  0  0  0  0  0  0  0  0  0  0
   -0.4827   -0.9022   -0.6180 C   0  0  0  0  0  0  0  0  0  0  0  0
   -0.3659   -1.8164   -1.6876 C   0  0  0  0  0  0  0  0  0  0  0  0
   -1.4205   -2.6598   -2.0020 C   0  0  0  0  0  0  0  0  0  0  0  0
    0.5891   -0.0414   -0.2959 N   0  0  0  0  0  0  0  0  0  0  0  0
    0.5762    1.3707   -0.2839 C   0  0  0  0  0  0  0  0  0  0  0  0
   -0.6187    2.2291   -0.5341 C   0  0  0  0  0  0  0  0  0  0  0  0
   -1.4402    2.1385    0.6390 O   0  0  0  0  0  0  0  0  0  0  0  0
   -2.3441    3.1759    0.8055 C   0  0  0  0  0  0  0  0  0  0  0  0
   -2.8004    3.3635    2.1222 C   0  0  0  0  0  0  0  0  0  0  0  0
   -3.7576    4.3420    2.3696 C   0  0  0  0  0  0  0  0  0  0  0  0
   -4.2502    5.1315    1.3280 C   0  0  0  0  0  0  0  0  0  0  0  0
   -3.7868    4.9398    0.0281 C   0  0  0  0  0  0  0  0  0  0  0  0
   -2.8323    3.9597   -0.2461 C   0  0  0  0  0  0  0  0  0  0  0  0
    1.8440    1.8053   -0.0037 N   0  0  0  0  0  0  0  0  0  0  0  0
    2.6405    0.7754    0.1522 N   0  0  0  0  0  0  0  0  0  0  0  0
    1.9294   -0.3898   -0.0114 C   0  0  0  0  0  0  0  0  0  0  0  0
    2.4563   -1.7435    0.1153 C   0  0  0  0  0  0  0  0  0  0  0  0
    3.7291   -2.0310   -0.3978 C   0  0  0  0  0  0  0  0  0  0  0  0
    4.2641   -3.3100   -0.2612 C   0  0  0  0  0  0  0  0  0  0  0  0
    3.5282   -4.3028    0.3937 C   0  0  0  0  0  0  0  0  0  0  0  0
    4.1772   -5.8637    0.5576 Cl  0  0  0  0  0  0  0  0  0  0  0  0
    2.2626   -4.0197    0.9183 C   0  0  0  0  0  0  0  0  0  0  0  0
    1.7305   -2.7403    0.7800 C   0  0  0  0  0  0  0  0  0  0  0  0
   -1.7926   -0.1188    0.9449 H   0  0  0  0  0  0  0  0  0  0  0  0
    0.5652   -1.8719   -2.2755 H   0  0  0  0  0  0  0  0  0  0  0  0
   -1.3316   -3.3760   -2.8338 H   0  0  0  0  0  0  0  0  0  0  0  0
   -0.2962    3.2900   -0.7127 H   0  0  0  0  0  0  0  0  0  0  0  0
   -1.2070    1.8454   -1.4110 H   0  0  0  0  0  0  0  0  0  0  0  0
   -2.3992    2.7371    2.9311 H   0  0  0  0  0  0  0  0  0  0  0  0
   -4.1238    4.4959    3.3958 H   0  0  0  0  0  0  0  0  0  0  0  0
   -5.0035    5.9051    1.5353 H   0  0  0  0  0  0  0  0  0  0  0  0
   -4.1748    5.5617   -0.7924 H   0  0  0  0  0  0  0  0  0  0  0  0
   -2.4784    3.8104   -1.2751 H   0  0  0  0  0  0  0  0  0  0  0  0
    4.3122   -1.2437   -0.9016 H   0  0  0  0  0  0  0  0  0  0  0  0
    5.2639   -3.5327   -0.6645 H   0  0  0  0  0  0  0  0  0  0  0  0
    1.6897   -4.7997    1.4428 H   0  0  0  0  0  0  0  0  0  0  0  0
    0.7388   -2.5149    1.2023 H   0  0  0  0  0  0  0  0  0  0  0  0
  1  2  1  0  0  0  0
  2  3  2  0  0  0  0
  2  8  1  0  0  0  0
  3  4  1  0  0  0  0
  3  5  1  0  0  0  0
  5  6  2  0  0  0  0
  5 29  1  0  0  0  0
  6  7  1  0  0  0  0
  6  9  1  0  0  0  0
  7  8  2  0  0  0  0
  7 30  1  0  0  0  0
  8 31  1  0  0  0  0
  9 10  1  0  0  0  0
  9 21  1  0  0  0  0
 10 11  1  0  0  0  0
 10 19  2  0  0  0  0
 11 12  1  0  0  0  0
 11 32  1  0  0  0  0
 11 33  1  0  0  0  0
 12 13  1  0  0  0  0
 13 14  2  0  0  0  0
 13 18  1  0  0  0  0
 14 15  1  0  0  0  0
 14 34  1  0  0  0  0
 15 16  2  0  0  0  0
 15 35  1  0  0  0  0
 16 17  1  0  0  0  0
 16 36  1  0  0  0  0
 17 18  2  0  0  0  0
 17 37  1  0  0  0  0
 18 38  1  0  0  0  0
 19 20  1  0  0  0  0
 20 21  2  0  0  0  0
 21 22  1  0  0  0  0
 22 23  2  0  0  0  0
 22 28  1  0  0  0  0
 23 24  1  0  0  0  0
 23 39  1  0  0  0  0
 24 25  2  0  0  0  0
 24 40  1  0  0  0  0
 25 26  1  0  0  0  0
 25 27  1  0  0  0  0
 27 28  2  0  0  0  0
 27 41  1  0  0  0  0
 28 42  1  0  0  0  0
M  END
