./141079-14-3.hin
 OpenBabel10051109203D

 42 45  0  0  0  0  0  0  0  0999 V2000
   -3.7575   -6.2188   -0.6992 F   0  0  0  0  0  0  0  0  0  0  0  0
   -2.7487   -5.3500   -0.4567 C   0  0  0  0  0  0  0  0  0  0  0  0
   -1.7300   -5.6937    0.4518 C   0  0  0  0  0  0  0  0  0  0  0  0
   -0.6977   -4.7952    0.6984 C   0  0  0  0  0  0  0  0  0  0  0  0
   -0.6734   -3.5511    0.0516 C   0  0  0  0  0  0  0  0  0  0  0  0
   -1.6836   -3.2178   -0.8601 C   0  0  0  0  0  0  0  0  0  0  0  0
   -2.7215   -4.1065   -1.1163 C   0  0  0  0  0  0  0  0  0  0  0  0
    0.4384   -2.6428    0.3040 C   0  0  0  0  0  0  0  0  0  0  0  0
    1.7614   -2.9955    0.4265 N   0  0  0  0  0  0  0  0  0  0  0  0
    2.4897   -1.9220    0.6188 N   0  0  0  0  0  0  0  0  0  0  0  0
    1.6844   -0.8150    0.6393 C   0  0  0  0  0  0  0  0  0  0  0  0
    2.1251    0.5972    0.8362 C   0  0  0  0  0  0  0  0  0  0  0  0
    2.0494    1.2322   -0.4484 O   0  0  0  0  0  0  0  0  0  0  0  0
    2.8365    2.3640   -0.5916 C   0  0  0  0  0  0  0  0  0  0  0  0
    3.1634    2.7007   -1.9170 C   0  0  0  0  0  0  0  0  0  0  0  0
    3.8959    3.8589   -2.1558 C   0  0  0  0  0  0  0  0  0  0  0  0
    4.3080    4.6687   -1.0950 C   0  0  0  0  0  0  0  0  0  0  0  0
    3.9824    4.3221    0.2147 C   0  0  0  0  0  0  0  0  0  0  0  0
    3.2422    3.1693    0.4788 C   0  0  0  0  0  0  0  0  0  0  0  0
    0.3519   -1.2380    0.4379 N   0  0  0  0  0  0  0  0  0  0  0  0
   -0.8105   -0.4373    0.4645 C   0  0  0  0  0  0  0  0  0  0  0  0
   -0.9407    0.6518   -0.4186 C   0  0  0  0  0  0  0  0  0  0  0  0
   -2.0872    1.4484   -0.3909 C   0  0  0  0  0  0  0  0  0  0  0  0
   -2.2006    2.7487   -1.4719 Cl  0  0  0  0  0  0  0  0  0  0  0  0
   -3.1237    1.1630    0.5245 C   0  0  0  0  0  0  0  0  0  0  0  0
   -4.2467    1.9127    0.5747 F   0  0  0  0  0  0  0  0  0  0  0  0
   -2.9862    0.0743    1.4075 C   0  0  0  0  0  0  0  0  0  0  0  0
   -1.8463   -0.7146    1.3831 C   0  0  0  0  0  0  0  0  0  0  0  0
   -1.7552   -6.6714    0.9548 H   0  0  0  0  0  0  0  0  0  0  0  0
    0.1083   -5.0677    1.3989 H   0  0  0  0  0  0  0  0  0  0  0  0
   -1.6568   -2.2497   -1.3849 H   0  0  0  0  0  0  0  0  0  0  0  0
   -3.5163   -3.8513   -1.8321 H   0  0  0  0  0  0  0  0  0  0  0  0
    1.4334    1.1353    1.5392 H   0  0  0  0  0  0  0  0  0  0  0  0
    3.1769    0.6175    1.2295 H   0  0  0  0  0  0  0  0  0  0  0  0
    2.8355    2.0503   -2.7399 H   0  0  0  0  0  0  0  0  0  0  0  0
    4.1552    4.1337   -3.1893 H   0  0  0  0  0  0  0  0  0  0  0  0
    4.8906    5.5796   -1.2946 H   0  0  0  0  0  0  0  0  0  0  0  0
    4.3069    4.9601    1.0503 H   0  0  0  0  0  0  0  0  0  0  0  0
    2.9830    2.9074    1.5135 H   0  0  0  0  0  0  0  0  0  0  0  0
   -0.1250    0.8935   -1.1266 H   0  0  0  0  0  0  0  0  0  0  0  0
   -3.7970   -0.1411    2.1209 H   0  0  0  0  0  0  0  0  0  0  0  0
   -1.7602   -1.5630    2.0820 H   0  0  0  0  0  0  0  0  0  0  0  0
  1  2  1  0  0  0  0
  2  3  2  0  0  0  0
  2  7  1  0  0  0  0
  3  4  1  0  0  0  0
  3 29  1  0  0  0  0
  4  5  2  0  0  0  0
  4 30  1  0  0  0  0
  5  6  1  0  0  0  0
  5  8  1  0  0  0  0
  6  7  2  0  0  0  0
  6 31  1  0  0  0  0
  7 32  1  0  0  0  0
  8  9  2  0  0  0  0
  8 20  1  0  0  0  0
  9 10  1  0  0  0  0
 10 11  2  0  0  0  0
 11 12  1  0  0  0  0
 11 20  1  0  0  0  0
 12 13  1  0  0  0  0
 12 33  1  0  0  0  0
 12 34  1  0  0  0  0
 13 14  1  0  0  0  0
 14 15  2  0  0  0  0
 14 19  1  0  0  0  0
 15 16  1  0  0  0  0
 15 35  1  0  0  0  0
 16 17  2  0  0  0  0
 16 36  1  0  0  0  0
 17 18  1  0  0  0  0
 17 37  1  0  0  0  0
 18 19  2  0  0  0  0
 18 38  1  0  0  0  0
 19 39  1  0  0  0  0
 20 21  1  0  0  0  0
 21 22  2  0  0  0  0
 21 28  1  0  0  0  0
 22 23  1  0  0  0  0
 22 40  1  0  0  0  0
 23 24  1  0  0  0  0
 23 25  2  0  0  0  0
 25 26  1  0  0  0  0
 25 27  1  0  0  0  0
 27 28  2  0  0  0  0
 27 41  1  0  0  0  0
 28 42  1  0  0  0  0
M  END
