./145026-81-9.hin
 OpenBabel10051109203D

 45 46  0  0  0  0  0  0  0  0999 V2000
    7.8001  -11.6062   -0.8366 N   0  0  0  0  0  0  0  0  0  0  0  0
    8.4528  -10.3491   -0.6220 C   0  0  0  0  0  0  0  0  0  0  0  0
    9.3990  -10.5916    0.4521 N   0  0  0  0  0  0  0  0  0  0  0  0
   10.0138   -9.5520    1.2354 C   0  0  0  0  0  0  0  0  0  0  0  0
   10.4919   -9.7914    2.3586 O   0  0  0  0  0  0  0  0  0  0  0  0
   10.1068   -8.2712    0.6803 N   0  0  0  0  0  0  0  0  0  0  0  0
   10.6433   -6.9121    1.4479 S   0  0  0  0  0  0  0  0  0  0  0  0
   12.3236   -7.1575    1.5518 C   0  0  0  0  0  0  0  0  0  0  0  0
   12.8474   -7.4918    2.8069 C   0  0  0  0  0  0  0  0  0  0  0  0
   14.2205   -7.6364    3.0079 C   0  0  0  0  0  0  0  0  0  0  0  0
   15.0993   -7.4447    1.9461 C   0  0  0  0  0  0  0  0  0  0  0  0
   14.6008   -7.1243    0.6812 C   0  0  0  0  0  0  0  0  0  0  0  0
   13.2247   -6.9987    0.4839 C   0  0  0  0  0  0  0  0  0  0  0  0
   12.7391   -6.7320   -0.8893 C   0  0  0  0  0  0  0  0  0  0  0  0
   11.7712   -7.2423   -1.4610 O   0  0  0  0  0  0  0  0  0  0  0  0
   13.5110   -5.8451   -1.5831 O   0  0  0  0  0  0  0  0  0  0  0  0
   13.0649   -5.5116   -2.9018 C   0  0  0  0  0  0  0  0  0  0  0  0
   10.3946   -5.8160    0.6055 O   0  0  0  0  0  0  0  0  0  0  0  0
   10.1166   -6.8199    2.7432 O   0  0  0  0  0  0  0  0  0  0  0  0
    9.2472  -11.8626    0.9577 N   0  0  0  0  0  0  0  0  0  0  0  0
    8.2935  -12.4517    0.2011 C   0  0  0  0  0  0  0  0  0  0  0  0
    7.7881  -13.7208    0.2853 O   0  0  0  0  0  0  0  0  0  0  0  0
    8.4319  -14.5628    1.2742 C   0  0  0  0  0  0  0  0  0  0  0  0
    7.7317  -15.9049    1.1616 C   0  0  0  0  0  0  0  0  0  0  0  0
    8.3128  -16.8766    2.1554 C   0  0  0  0  0  0  0  0  0  0  0  0
    8.3082   -9.3204   -1.2952 O   0  0  0  0  0  0  0  0  0  0  0  0
    6.5484  -11.7640   -1.5030 C   0  0  0  0  0  0  0  0  0  0  0  0
    9.8794   -8.1861   -0.2986 H   0  0  0  0  0  0  0  0  0  0  0  0
   12.1514   -7.6458    3.6550 H   0  0  0  0  0  0  0  0  0  0  0  0
   14.6020   -7.9011    4.0059 H   0  0  0  0  0  0  0  0  0  0  0  0
   16.1854   -7.5462    2.0964 H   0  0  0  0  0  0  0  0  0  0  0  0
   15.2888   -6.9661   -0.1649 H   0  0  0  0  0  0  0  0  0  0  0  0
   12.0322   -5.0891   -2.8578 H   0  0  0  0  0  0  0  0  0  0  0  0
   13.8092   -4.7499   -3.2412 H   0  0  0  0  0  0  0  0  0  0  0  0
   13.0824   -6.4223   -3.5472 H   0  0  0  0  0  0  0  0  0  0  0  0
    9.5230  -14.6434    1.0336 H   0  0  0  0  0  0  0  0  0  0  0  0
    8.2931  -14.1069    2.2882 H   0  0  0  0  0  0  0  0  0  0  0  0
    6.6339  -15.7692    1.3463 H   0  0  0  0  0  0  0  0  0  0  0  0
    7.8471  -16.2992    0.1181 H   0  0  0  0  0  0  0  0  0  0  0  0
    7.7953  -17.8626    2.0700 H   0  0  0  0  0  0  0  0  0  0  0  0
    9.4029  -17.0321    1.9674 H   0  0  0  0  0  0  0  0  0  0  0  0
    8.1859  -16.5001    3.1994 H   0  0  0  0  0  0  0  0  0  0  0  0
    6.4667  -12.8270   -1.8554 H   0  0  0  0  0  0  0  0  0  0  0  0
    5.6842  -11.5358   -0.8220 H   0  0  0  0  0  0  0  0  0  0  0  0
    6.5251  -11.0617   -2.3794 H   0  0  0  0  0  0  0  0  0  0  0  0
  1  2  1  0  0  0  0
  1 21  1  0  0  0  0
  1 27  1  0  0  0  0
  2  3  1  0  0  0  0
  2 26  2  0  0  0  0
  3  4  1  0  0  0  0
  3 20  1  0  0  0  0
  4  5  2  0  0  0  0
  4  6  1  0  0  0  0
  6  7  1  0  0  0  0
  6 28  1  0  0  0  0
  7  8  1  0  0  0  0
  7 18  2  0  0  0  0
  7 19  2  0  0  0  0
  8  9  2  0  0  0  0
  8 13  1  0  0  0  0
  9 10  1  0  0  0  0
  9 29  1  0  0  0  0
 10 11  2  0  0  0  0
 10 30  1  0  0  0  0
 11 12  1  0  0  0  0
 11 31  1  0  0  0  0
 12 13  2  0  0  0  0
 12 32  1  0  0  0  0
 13 14  1  0  0  0  0
 14 15  2  0  0  0  0
 14 16  1  0  0  0  0
 16 17  1  0  0  0  0
 17 33  1  0  0  0  0
 17 34  1  0  0  0  0
 17 35  1  0  0  0  0
 20 21  2  0  0  0  0
 21 22  1  0  0  0  0
 22 23  1  0  0  0  0
 23 24  1  0  0  0  0
 23 36  1  0  0  0  0
 23 37  1  0  0  0  0
 24 25  1  0  0  0  0
 24 38  1  0  0  0  0
 24 39  1  0  0  0  0
 25 40  1  0  0  0  0
 25 41  1  0  0  0  0
 25 42  1  0  0  0  0
 27 43  1  0  0  0  0
 27 44  1  0  0  0  0
 27 45  1  0  0  0  0
M  END
