./147993-59-7.hin
 OpenBabel10051109203D

 43 44  0  0  0  0  0  0  0  0999 V2000
   -1.9260   -6.3269    2.5848 C   0  0  0  0  0  0  0  0  0  0  0  0
   -2.3616   -5.6877    3.7787 O   0  0  0  0  0  0  0  0  0  0  0  0
   -2.3155   -4.3144    3.8211 C   0  0  0  0  0  0  0  0  0  0  0  0
   -2.6263   -3.8704    4.9259 O   0  0  0  0  0  0  0  0  0  0  0  0
   -1.9256   -3.5372    2.6300 C   0  0  0  0  0  0  0  0  0  0  0  0
   -2.7817   -3.4611    1.5225 C   0  0  0  0  0  0  0  0  0  0  0  0
   -2.4361   -2.6906    0.4210 C   0  0  0  0  0  0  0  0  0  0  0  0
   -1.2155   -1.9858    0.4302 C   0  0  0  0  0  0  0  0  0  0  0  0
   -0.3574   -2.0510    1.5346 C   0  0  0  0  0  0  0  0  0  0  0  0
   -0.7239   -2.8243    2.6353 C   0  0  0  0  0  0  0  0  0  0  0  0
   -0.9680   -1.2585   -0.7157 O   0  0  0  0  0  0  0  0  0  0  0  0
    0.2351   -0.4796   -0.7127 C   0  0  0  0  0  0  0  0  0  0  0  0
    0.2189    0.2306   -2.0779 C   0  0  0  0  0  0  0  0  0  0  0  0
    1.2778    1.2071   -2.2063 N   0  0  0  0  0  0  0  0  0  0  0  0
    2.6015    0.9048   -2.2583 N   0  0  0  0  0  0  0  0  0  0  0  0
    3.3118    1.9534   -2.3751 N   0  0  0  0  0  0  0  0  0  0  0  0
    2.4590    3.0821   -2.4214 C   0  0  0  0  0  0  0  0  0  0  0  0
    1.1347    2.6072   -2.2853 C   0  0  0  0  0  0  0  0  0  0  0  0
   -1.0586    2.8992   -2.9822 C   0  0  0  0  0  0  0  0  0  0  0  0
   -0.0096    3.3480   -2.1838 O   0  0  0  0  0  0  0  0  0  0  0  0
   -2.1142    3.7213   -2.9660 N   0  0  0  0  0  0  0  0  0  0  0  0
   -2.3580    4.9141   -2.3436 N   0  0  0  0  0  0  0  0  0  0  0  0
    3.5359    4.9181   -1.5411 C   0  0  0  0  0  0  0  0  0  0  0  0
    2.8553    4.3772   -2.6294 O   0  0  0  0  0  0  0  0  0  0  0  0
    4.0353    6.1369   -1.7982 N   0  0  0  0  0  0  0  0  0  0  0  0
    4.0191    6.9370   -2.9071 N   0  0  0  0  0  0  0  0  0  0  0  0
   -1.9734   -7.4173    2.8335 H   0  0  0  0  0  0  0  0  0  0  0  0
   -2.6161   -6.0832    1.7406 H   0  0  0  0  0  0  0  0  0  0  0  0
   -0.8817   -6.0220    2.3329 H   0  0  0  0  0  0  0  0  0  0  0  0
   -3.7386   -4.0069    1.5298 H   0  0  0  0  0  0  0  0  0  0  0  0
   -3.0972   -2.6180   -0.4543 H   0  0  0  0  0  0  0  0  0  0  0  0
    0.5942   -1.5014    1.5527 H   0  0  0  0  0  0  0  0  0  0  0  0
   -0.0637   -2.8677    3.5163 H   0  0  0  0  0  0  0  0  0  0  0  0
    0.2097    0.2507    0.1373 H   0  0  0  0  0  0  0  0  0  0  0  0
    1.1250   -1.1543   -0.6166 H   0  0  0  0  0  0  0  0  0  0  0  0
   -0.7687    0.7569   -2.2204 H   0  0  0  0  0  0  0  0  0  0  0  0
    0.3311   -0.5416   -2.8919 H   0  0  0  0  0  0  0  0  0  0  0  0
   -2.9010    3.4283   -3.5223 H   0  0  0  0  0  0  0  0  0  0  0  0
   -1.6463    5.5846   -2.6135 H   0  0  0  0  0  0  0  0  0  0  0  0
   -2.2787    4.7913   -1.3398 H   0  0  0  0  0  0  0  0  0  0  0  0
    4.5161    6.5778   -1.0325 H   0  0  0  0  0  0  0  0  0  0  0  0
    4.5351    6.4821   -3.6531 H   0  0  0  0  0  0  0  0  0  0  0  0
    3.0644    7.0343   -3.2345 H   0  0  0  0  0  0  0  0  0  0  0  0
  1  2  1  0  0  0  0
  1 27  1  0  0  0  0
  1 28  1  0  0  0  0
  1 29  1  0  0  0  0
  2  3  1  0  0  0  0
  3  4  2  0  0  0  0
  3  5  1  0  0  0  0
  5  6  2  0  0  0  0
  5 10  1  0  0  0  0
  6  7  1  0  0  0  0
  6 30  1  0  0  0  0
  7  8  2  0  0  0  0
  7 31  1  0  0  0  0
  8  9  1  0  0  0  0
  8 11  1  0  0  0  0
  9 10  2  0  0  0  0
  9 32  1  0  0  0  0
 10 33  1  0  0  0  0
 11 12  1  0  0  0  0
 12 13  1  0  0  0  0
 12 34  1  0  0  0  0
 12 35  1  0  0  0  0
 13 14  1  0  0  0  0
 13 36  1  0  0  0  0
 13 37  1  0  0  0  0
 14 15  1  0  0  0  0
 14 18  1  0  0  0  0
 15 16  2  0  0  0  0
 16 17  1  0  0  0  0
 17 18  2  0  0  0  0
 17 23  1  0  0  0  0
 18 19  1  0  0  0  0
 19 20  2  0  0  0  0
 19 21  1  0  0  0  0
 21 22  1  0  0  0  0
 21 38  1  0  0  0  0
 22 39  1  0  0  0  0
 22 40  1  0  0  0  0
 23 24  2  0  0  0  0
 23 25  1  0  0  0  0
 25 26  1  0  0  0  0
 25 41  1  0  0  0  0
 26 42  1  0  0  0  0
 26 43  1  0  0  0  0
M  END
