./149508-90-7.hin
 OpenBabel10051109203D

 40 41  0  0  0  0  0  0  0  0999 V2000
    8.5465  -16.8695   -1.2290 F   0  0  0  0  0  0  0  0  0  0  0  0
    8.5235  -15.5538   -1.0981 C   0  0  0  0  0  0  0  0  0  0  0  0
    9.6804  -14.8544   -0.7541 C   0  0  0  0  0  0  0  0  0  0  0  0
    7.3411  -14.8412   -1.2961 C   0  0  0  0  0  0  0  0  0  0  0  0
    7.3244  -13.4527   -1.1537 C   0  0  0  0  0  0  0  0  0  0  0  0
    8.4771  -12.7312   -0.8134 C   0  0  0  0  0  0  0  0  0  0  0  0
    9.6541  -13.4652   -0.6143 C   0  0  0  0  0  0  0  0  0  0  0  0
    8.3970  -11.2140   -0.6672 C   0  0  0  0  0  0  0  0  0  0  0  0
    7.6657  -10.7328   -1.7707 O   0  0  0  0  0  0  0  0  0  0  0  0
    7.5801  -10.8457    0.5890 C   0  0  0  0  0  0  0  0  0  0  0  0
    8.2681  -11.1114    1.8299 N   0  0  0  0  0  0  0  0  0  0  0  0
    8.1647  -10.4060    2.9674 C   0  0  0  0  0  0  0  0  0  0  0  0
    8.9834  -12.2253    2.1125 N   0  0  0  0  0  0  0  0  0  0  0  0
    9.2825  -12.0982    3.4171 C   0  0  0  0  0  0  0  0  0  0  0  0
    8.7973  -10.9862    4.0076 N   0  0  0  0  0  0  0  0  0  0  0  0
    9.7625  -10.5003   -0.7239 C   0  0  0  0  0  0  0  0  0  0  0  0
    9.8620   -8.6077   -0.7972 Si  0  0  0  0  0  0  0  0  0  0  0  0
   11.6218   -8.1579   -1.3240 C   0  0  0  0  0  0  0  0  0  0  0  0
    8.6581   -7.8905   -2.0526 C   0  0  0  0  0  0  0  0  0  0  0  0
    9.5531   -7.8303    0.8906 C   0  0  0  0  0  0  0  0  0  0  0  0
   10.6215  -15.4056   -0.5887 H   0  0  0  0  0  0  0  0  0  0  0  0
    6.4162  -15.3785   -1.5650 H   0  0  0  0  0  0  0  0  0  0  0  0
    6.3712  -12.9233   -1.3172 H   0  0  0  0  0  0  0  0  0  0  0  0
   10.5951  -12.9679   -0.3340 H   0  0  0  0  0  0  0  0  0  0  0  0
    8.0198  -11.1405   -2.5420 H   0  0  0  0  0  0  0  0  0  0  0  0
    7.3124   -9.7661    0.5457 H   0  0  0  0  0  0  0  0  0  0  0  0
    6.6108  -11.3949    0.6107 H   0  0  0  0  0  0  0  0  0  0  0  0
    7.6219   -9.4517    3.0616 H   0  0  0  0  0  0  0  0  0  0  0  0
    9.8692  -12.8521    3.9652 H   0  0  0  0  0  0  0  0  0  0  0  0
   10.3880  -10.7912    0.1493 H   0  0  0  0  0  0  0  0  0  0  0  0
   10.2893  -10.8489   -1.6419 H   0  0  0  0  0  0  0  0  0  0  0  0
   11.7033   -7.0488   -1.3626 H   0  0  0  0  0  0  0  0  0  0  0  0
   12.3282   -8.5768   -0.5729 H   0  0  0  0  0  0  0  0  0  0  0  0
   11.8104   -8.5989   -2.3282 H   0  0  0  0  0  0  0  0  0  0  0  0
    8.8446   -6.7958   -2.1238 H   0  0  0  0  0  0  0  0  0  0  0  0
    8.8396   -8.3800   -3.0354 H   0  0  0  0  0  0  0  0  0  0  0  0
    7.6194   -8.0785   -1.7008 H   0  0  0  0  0  0  0  0  0  0  0  0
    9.8304   -6.7545    0.8287 H   0  0  0  0  0  0  0  0  0  0  0  0
    8.4767   -7.9240    1.1500 H   0  0  0  0  0  0  0  0  0  0  0  0
   10.1891   -8.3519    1.6402 H   0  0  0  0  0  0  0  0  0  0  0  0
  1  2  1  0  0  0  0
  2  3  2  0  0  0  0
  2  4  1  0  0  0  0
  3  7  1  0  0  0  0
  3 21  1  0  0  0  0
  4  5  2  0  0  0  0
  4 22  1  0  0  0  0
  5  6  1  0  0  0  0
  5 23  1  0  0  0  0
  6  7  2  0  0  0  0
  6  8  1  0  0  0  0
  7 24  1  0  0  0  0
  8  9  1  0  0  0  0
  8 10  1  0  0  0  0
  8 16  1  0  0  0  0
  9 25  1  0  0  0  0
 10 11  1  0  0  0  0
 10 26  1  0  0  0  0
 10 27  1  0  0  0  0
 11 12  1  0  0  0  0
 11 13  1  0  0  0  0
 12 15  2  0  0  0  0
 12 28  1  0  0  0  0
 13 14  2  0  0  0  0
 14 15  1  0  0  0  0
 14 29  1  0  0  0  0
 16 17  1  0  0  0  0
 16 30  1  0  0  0  0
 16 31  1  0  0  0  0
 17 18  1  0  0  0  0
 17 19  1  0  0  0  0
 17 20  1  0  0  0  0
 18 32  1  0  0  0  0
 18 33  1  0  0  0  0
 18 34  1  0  0  0  0
 19 35  1  0  0  0  0
 19 36  1  0  0  0  0
 19 37  1  0  0  0  0
 20 38  1  0  0  0  0
 20 39  1  0  0  0  0
 20 40  1  0  0  0  0
M  END
