./212201-70-2.hin
 OpenBabel10051109203D

 42 44  0  0  0  0  0  0  0  0999 V2000
    7.8745   -8.5613    0.0253 F   0  0  0  0  0  0  0  0  0  0  0  0
    7.8530   -9.9135    0.0345 C   0  0  0  0  0  0  0  0  0  0  0  0
    8.4056  -10.6178    1.1205 C   0  0  0  0  0  0  0  0  0  0  0  0
    8.3745  -12.0045    1.1289 C   0  0  0  0  0  0  0  0  0  0  0  0
    7.8126  -12.7365    0.0630 C   0  0  0  0  0  0  0  0  0  0  0  0
    7.2615  -12.0104   -1.0327 C   0  0  0  0  0  0  0  0  0  0  0  0
    6.7069  -12.6548   -2.0853 F   0  0  0  0  0  0  0  0  0  0  0  0
    7.2782  -10.6064   -1.0407 C   0  0  0  0  0  0  0  0  0  0  0  0
    7.7748  -14.1579    0.0654 N   0  0  0  0  0  0  0  0  0  0  0  0
    6.4822  -14.7565    0.4327 C   0  0  0  0  0  0  0  0  0  0  0  0
    6.2734  -16.1270   -0.2087 C   0  0  0  0  0  0  0  0  0  0  0  0
    6.2441  -14.8601    1.9379 C   0  0  0  0  0  0  0  0  0  0  0  0
    8.9610  -14.8645    0.4004 C   0  0  0  0  0  0  0  0  0  0  0  0
    8.9630  -15.9006    1.0849 O   0  0  0  0  0  0  0  0  0  0  0  0
   10.1828  -14.3885   -0.1454 N   0  0  0  0  0  0  0  0  0  0  0  0
   10.3638  -13.6775   -1.3628 C   0  0  0  0  0  0  0  0  0  0  0  0
   11.6506  -13.5178   -1.6616 N   0  0  0  0  0  0  0  0  0  0  0  0
   12.3899  -14.1908   -0.7205 N   0  0  0  0  0  0  0  0  0  0  0  0
   13.6998  -13.7330   -0.3740 C   0  0  0  0  0  0  0  0  0  0  0  0
   13.9871  -12.3639   -0.2069 C   0  0  0  0  0  0  0  0  0  0  0  0
   15.2749  -11.9433    0.1050 C   0  0  0  0  0  0  0  0  0  0  0  0
   16.2948  -12.8864    0.2627 C   0  0  0  0  0  0  0  0  0  0  0  0
   17.8650  -12.3744    0.6551 Cl  0  0  0  0  0  0  0  0  0  0  0  0
   16.0350  -14.2472    0.0952 C   0  0  0  0  0  0  0  0  0  0  0  0
   14.7449  -14.6754   -0.2345 C   0  0  0  0  0  0  0  0  0  0  0  0
   14.4803  -16.3328   -0.4617 Cl  0  0  0  0  0  0  0  0  0  0  0  0
   11.5073  -14.7052    0.3289 C   0  0  0  0  0  0  0  0  0  0  0  0
   11.8137  -15.3079    1.3568 O   0  0  0  0  0  0  0  0  0  0  0  0
    8.8524  -10.0627    1.9592 H   0  0  0  0  0  0  0  0  0  0  0  0
    8.8034  -12.5440    1.9911 H   0  0  0  0  0  0  0  0  0  0  0  0
    6.8442  -10.0582   -1.8905 H   0  0  0  0  0  0  0  0  0  0  0  0
    5.7091  -14.0505   -0.0048 H   0  0  0  0  0  0  0  0  0  0  0  0
    5.2324  -16.4634    0.0153 H   0  0  0  0  0  0  0  0  0  0  0  0
    6.4019  -16.0759   -1.3160 H   0  0  0  0  0  0  0  0  0  0  0  0
    6.9907  -16.8761    0.2060 H   0  0  0  0  0  0  0  0  0  0  0  0
    5.2015  -15.2168    2.1154 H   0  0  0  0  0  0  0  0  0  0  0  0
    6.9571  -15.5871    2.3986 H   0  0  0  0  0  0  0  0  0  0  0  0
    6.3714  -13.8673    2.4323 H   0  0  0  0  0  0  0  0  0  0  0  0
    9.5177  -13.3215   -1.9688 H   0  0  0  0  0  0  0  0  0  0  0  0
   13.1945  -11.6089   -0.3317 H   0  0  0  0  0  0  0  0  0  0  0  0
   16.8425  -14.9880    0.2157 H   0  0  0  0  0  0  0  0  0  0  0  0
   15.4854  -10.8695    0.2288 H   0  0  0  0  0  0  0  0  0  0  0  0
  1  2  1  0  0  0  0
  2  3  2  0  0  0  0
  2  8  1  0  0  0  0
  3  4  1  0  0  0  0
  3 29  1  0  0  0  0
  4  5  2  0  0  0  0
  4 30  1  0  0  0  0
  5  6  1  0  0  0  0
  5  9  1  0  0  0  0
  6  7  1  0  0  0  0
  6  8  2  0  0  0  0
  8 31  1  0  0  0  0
  9 10  1  0  0  0  0
  9 13  1  0  0  0  0
 10 11  1  0  0  0  0
 10 12  1  0  0  0  0
 10 32  1  0  0  0  0
 11 33  1  0  0  0  0
 11 34  1  0  0  0  0
 11 35  1  0  0  0  0
 12 36  1  0  0  0  0
 12 37  1  0  0  0  0
 12 38  1  0  0  0  0
 13 14  2  0  0  0  0
 13 15  1  0  0  0  0
 15 16  1  0  0  0  0
 15 27  1  0  0  0  0
 16 17  2  0  0  0  0
 16 39  1  0  0  0  0
 17 18  1  0  0  0  0
 18 19  1  0  0  0  0
 18 27  1  0  0  0  0
 19 20  2  0  0  0  0
 19 25  1  0  0  0  0
 20 21  1  0  0  0  0
 20 40  1  0  0  0  0
 21 22  2  0  0  0  0
 21 42  1  0  0  0  0
 22 23  1  0  0  0  0
 22 24  1  0  0  0  0
 24 25  2  0  0  0  0
 24 41  1  0  0  0  0
 25 26  1  0  0  0  0
 27 28  2  0  0  0  0
M  END
