./219714-96-2.hin
 OpenBabel10051109203D

 46 48  0  0  0  0  0  0  0  0999 V2000
   -0.4177   -2.1880    2.8293 C   0  0  0  0  0  0  0  0  0  0  0  0
    0.7909   -1.9084    3.5464 O   0  0  0  0  0  0  0  0  0  0  0  0
    1.9177   -1.8617    2.7611 C   0  0  0  0  0  0  0  0  0  0  0  0
    2.9183   -2.8080    2.9128 C   0  0  0  0  0  0  0  0  0  0  0  0
    4.1261   -2.7592    2.2693 N   0  0  0  0  0  0  0  0  0  0  0  0
    4.3638   -1.7447    1.4254 C   0  0  0  0  0  0  0  0  0  0  0  0
    3.4296   -0.7224    1.1714 N   0  0  0  0  0  0  0  0  0  0  0  0
    2.1523   -0.7637    1.8573 C   0  0  0  0  0  0  0  0  0  0  0  0
    1.4159    0.3052    1.4743 N   0  0  0  0  0  0  0  0  0  0  0  0
    2.2704    0.9787    0.5442 C   0  0  0  0  0  0  0  0  0  0  0  0
    3.5011    0.3522    0.3639 N   0  0  0  0  0  0  0  0  0  0  0  0
    1.8795    2.1475   -0.1019 N   0  0  0  0  0  0  0  0  0  0  0  0
    0.3761    2.8034   -0.1359 S   0  0  0  0  0  0  0  0  0  0  0  0
    0.4575    3.9298   -0.9737 O   0  0  0  0  0  0  0  0  0  0  0  0
   -0.6009    1.8590   -0.4492 O   0  0  0  0  0  0  0  0  0  0  0  0
    0.1136    3.3464    1.4727 C   0  0  0  0  0  0  0  0  0  0  0  0
   -0.9457    2.9388    2.3036 C   0  0  0  0  0  0  0  0  0  0  0  0
   -1.0841    3.4407    3.5978 C   0  0  0  0  0  0  0  0  0  0  0  0
   -0.1806    4.3794    4.0998 C   0  0  0  0  0  0  0  0  0  0  0  0
    0.8636    4.8287    3.3037 C   0  0  0  0  0  0  0  0  0  0  0  0
    0.9985    4.3065    2.0107 C   0  0  0  0  0  0  0  0  0  0  0  0
    2.0664    4.6632    1.1998 O   0  0  0  0  0  0  0  0  0  0  0  0
    2.4224    6.0444    1.1874 C   0  0  0  0  0  0  0  0  0  0  0  0
    3.7631    6.2108    1.9605 C   0  0  0  0  0  0  0  0  0  0  0  0
    4.5660    7.1563    1.3653 F   0  0  0  0  0  0  0  0  0  0  0  0
    3.5755    6.7243    3.2250 F   0  0  0  0  0  0  0  0  0  0  0  0
   -2.0432    1.9580    1.8369 C   0  0  0  0  0  0  0  0  0  0  0  0
   -1.6109    0.7004    1.5203 F   0  0  0  0  0  0  0  0  0  0  0  0
   -3.0132    1.7259    2.7888 F   0  0  0  0  0  0  0  0  0  0  0  0
   -2.7644    2.4041    0.7597 F   0  0  0  0  0  0  0  0  0  0  0  0
    5.5426   -1.5982    0.7281 O   0  0  0  0  0  0  0  0  0  0  0  0
    6.5317   -2.6176    0.9242 C   0  0  0  0  0  0  0  0  0  0  0  0
   -1.1906   -2.2166    3.6378 H   0  0  0  0  0  0  0  0  0  0  0  0
   -0.6392   -1.3748    2.0967 H   0  0  0  0  0  0  0  0  0  0  0  0
   -0.3417   -3.1760    2.3157 H   0  0  0  0  0  0  0  0  0  0  0  0
    2.7950   -3.6683    3.5964 H   0  0  0  0  0  0  0  0  0  0  0  0
    2.6339    2.6344   -0.5429 H   0  0  0  0  0  0  0  0  0  0  0  0
   -1.9157    3.0996    4.2377 H   0  0  0  0  0  0  0  0  0  0  0  0
   -0.2994    4.7619    5.1261 H   0  0  0  0  0  0  0  0  0  0  0  0
    1.5840    5.5730    3.6797 H   0  0  0  0  0  0  0  0  0  0  0  0
    2.5848    6.2823    0.1004 H   0  0  0  0  0  0  0  0  0  0  0  0
    1.6257    6.6984    1.6187 H   0  0  0  0  0  0  0  0  0  0  0  0
    4.3004    5.2167    2.0186 H   0  0  0  0  0  0  0  0  0  0  0  0
    7.3616   -2.2705    0.2560 H   0  0  0  0  0  0  0  0  0  0  0  0
    6.8572   -2.6465    1.9911 H   0  0  0  0  0  0  0  0  0  0  0  0
    6.1401   -3.6106    0.5990 H   0  0  0  0  0  0  0  0  0  0  0  0
  1  2  1  0  0  0  0
  1 33  1  0  0  0  0
  1 34  1  0  0  0  0
  1 35  1  0  0  0  0
  2  3  1  0  0  0  0
  3  4  2  0  0  0  0
  3  8  1  0  0  0  0
  4  5  1  0  0  0  0
  4 36  1  0  0  0  0
  5  6  2  0  0  0  0
  6  7  1  0  0  0  0
  6 31  1  0  0  0  0
  7  8  1  0  0  0  0
  7 11  1  0  0  0  0
  8  9  2  0  0  0  0
  9 10  1  0  0  0  0
 10 11  2  0  0  0  0
 10 12  1  0  0  0  0
 12 13  1  0  0  0  0
 12 37  1  0  0  0  0
 13 14  2  0  0  0  0
 13 15  2  0  0  0  0
 13 16  1  0  0  0  0
 16 17  2  0  0  0  0
 16 21  1  0  0  0  0
 17 18  1  0  0  0  0
 17 27  1  0  0  0  0
 18 19  2  0  0  0  0
 18 38  1  0  0  0  0
 19 20  1  0  0  0  0
 19 39  1  0  0  0  0
 20 21  2  0  0  0  0
 20 40  1  0  0  0  0
 21 22  1  0  0  0  0
 22 23  1  0  0  0  0
 23 24  1  0  0  0  0
 23 41  1  0  0  0  0
 23 42  1  0  0  0  0
 24 25  1  0  0  0  0
 24 26  1  0  0  0  0
 24 43  1  0  0  0  0
 27 28  1  0  0  0  0
 27 29  1  0  0  0  0
 27 30  1  0  0  0  0
 31 32  1  0  0  0  0
 32 44  1  0  0  0  0
 32 45  1  0  0  0  0
 32 46  1  0  0  0  0
M  END
