./348635-87-0.hin
 OpenBabel10051109203D

 39 41  0  0  0  0  0  0  0  0999 V2000
   10.8445  -12.8059    2.8716 O   0  0  0  0  0  0  0  0  0  0  0  0
   11.3440  -13.9250    2.2090 S   0  0  0  0  0  0  0  0  0  0  0  0
   10.9747  -15.1842    2.6753 O   0  0  0  0  0  0  0  0  0  0  0  0
   13.0599  -13.8312    2.2210 C   0  0  0  0  0  0  0  0  0  0  0  0
   13.7501  -13.7998    3.4629 N   0  0  0  0  0  0  0  0  0  0  0  0
   15.0397  -13.7280    3.1128 C   0  0  0  0  0  0  0  0  0  0  0  0
   15.1508  -13.7175    1.6912 N   0  0  0  0  0  0  0  0  0  0  0  0
   13.9260  -13.7819    1.1732 N   0  0  0  0  0  0  0  0  0  0  0  0
   16.5941  -13.6597    0.7200 S   0  0  0  0  0  0  0  0  0  0  0  0
   17.6164  -13.3629    1.6427 O   0  0  0  0  0  0  0  0  0  0  0  0
   16.6868  -14.8787    0.0370 O   0  0  0  0  0  0  0  0  0  0  0  0
   16.3303  -12.4379   -0.2838 N   0  0  0  0  0  0  0  0  0  0  0  0
   16.6558  -11.0803    0.0551 C   0  0  0  0  0  0  0  0  0  0  0  0
   15.6030  -12.6077   -1.5127 C   0  0  0  0  0  0  0  0  0  0  0  0
   11.0100  -13.8078    0.5883 N   0  0  0  0  0  0  0  0  0  0  0  0
   10.7022  -12.6225   -0.1283 C   0  0  0  0  0  0  0  0  0  0  0  0
   10.5430  -11.3145    0.3373 C   0  0  0  0  0  0  0  0  0  0  0  0
   10.2342  -10.3293   -0.6157 C   0  0  0  0  0  0  0  0  0  0  0  0
   10.0783   -9.0465   -0.2080 F   0  0  0  0  0  0  0  0  0  0  0  0
   10.0801  -10.6364   -1.9876 C   0  0  0  0  0  0  0  0  0  0  0  0
   10.2308  -11.9408   -2.4377 C   0  0  0  0  0  0  0  0  0  0  0  0
   10.5428  -12.9407   -1.5220 C   0  0  0  0  0  0  0  0  0  0  0  0
   10.7613  -14.3733   -1.6431 C   0  0  0  0  0  0  0  0  0  0  0  0
   10.6711  -15.3139   -3.2167 Br  0  0  0  0  0  0  0  0  0  0  0  0
   11.0369  -14.8644   -0.3719 C   0  0  0  0  0  0  0  0  0  0  0  0
   11.3206  -16.2636    0.0091 C   0  0  0  0  0  0  0  0  0  0  0  0
   15.9149  -13.6824    3.7767 H   0  0  0  0  0  0  0  0  0  0  0  0
   17.2366  -10.6093   -0.7837 H   0  0  0  0  0  0  0  0  0  0  0  0
   15.7224  -10.4773    0.2230 H   0  0  0  0  0  0  0  0  0  0  0  0
   17.2868  -11.0563    0.9854 H   0  0  0  0  0  0  0  0  0  0  0  0
   14.5991  -12.1064   -1.4517 H   0  0  0  0  0  0  0  0  0  0  0  0
   16.1811  -12.1522   -2.3614 H   0  0  0  0  0  0  0  0  0  0  0  0
   15.4564  -13.7027   -1.7227 H   0  0  0  0  0  0  0  0  0  0  0  0
   10.6315  -11.0499    1.4035 H   0  0  0  0  0  0  0  0  0  0  0  0
    9.8326   -9.8269   -2.6898 H   0  0  0  0  0  0  0  0  0  0  0  0
   10.1017  -12.1829   -3.5036 H   0  0  0  0  0  0  0  0  0  0  0  0
   10.6074  -16.6181    0.7991 H   0  0  0  0  0  0  0  0  0  0  0  0
   11.2221  -16.9278   -0.8851 H   0  0  0  0  0  0  0  0  0  0  0  0
   12.3621  -16.3609    0.4094 H   0  0  0  0  0  0  0  0  0  0  0  0
  1  2  2  0  0  0  0
  2  3  2  0  0  0  0
  2  4  1  0  0  0  0
  2 15  1  0  0  0  0
  4  5  1  0  0  0  0
  4  8  2  0  0  0  0
  5  6  2  0  0  0  0
  6  7  1  0  0  0  0
  6 27  1  0  0  0  0
  7  8  1  0  0  0  0
  7  9  1  0  0  0  0
  9 10  2  0  0  0  0
  9 11  2  0  0  0  0
  9 12  1  0  0  0  0
 12 13  1  0  0  0  0
 12 14  1  0  0  0  0
 13 28  1  0  0  0  0
 13 29  1  0  0  0  0
 13 30  1  0  0  0  0
 14 31  1  0  0  0  0
 14 32  1  0  0  0  0
 14 33  1  0  0  0  0
 15 16  1  0  0  0  0
 15 25  1  0  0  0  0
 16 17  2  0  0  0  0
 16 22  1  0  0  0  0
 17 18  1  0  0  0  0
 17 34  1  0  0  0  0
 18 19  1  0  0  0  0
 18 20  2  0  0  0  0
 20 21  1  0  0  0  0
 20 35  1  0  0  0  0
 21 22  2  0  0  0  0
 21 36  1  0  0  0  0
 22 23  1  0  0  0  0
 23 24  1  0  0  0  0
 23 25  2  0  0  0  0
 25 26  1  0  0  0  0
 26 37  1  0  0  0  0
 26 38  1  0  0  0  0
 26 39  1  0  0  0  0
M  END
