./422556-08-9.hin
 OpenBabel10051109203D

 42 44  0  0  0  0  0  0  0  0999 V2000
   -1.6717   -6.4246    1.1138 C   0  0  0  0  0  0  0  0  0  0  0  0
   -1.9174   -5.0303    0.9109 O   0  0  0  0  0  0  0  0  0  0  0  0
   -0.8047   -4.2255    0.9216 C   0  0  0  0  0  0  0  0  0  0  0  0
    0.5024   -4.6644    1.0966 C   0  0  0  0  0  0  0  0  0  0  0  0
    1.5588   -3.6883    1.0816 C   0  0  0  0  0  0  0  0  0  0  0  0
    1.3992   -2.3671    0.9101 N   0  0  0  0  0  0  0  0  0  0  0  0
    0.0976   -1.9393    0.7382 C   0  0  0  0  0  0  0  0  0  0  0  0
   -0.3942   -0.6818    0.5424 N   0  0  0  0  0  0  0  0  0  0  0  0
   -1.8081   -0.8849    0.4399 C   0  0  0  0  0  0  0  0  0  0  0  0
   -2.2073   -2.2094    0.5565 N   0  0  0  0  0  0  0  0  0  0  0  0
   -1.0480   -2.8737    0.7371 N   0  0  0  0  0  0  0  0  0  0  0  0
   -2.6725    0.1887    0.2378 N   0  0  0  0  0  0  0  0  0  0  0  0
   -2.2956    1.7685    0.5162 S   0  0  0  0  0  0  0  0  0  0  0  0
   -3.4808    2.5018    0.3479 O   0  0  0  0  0  0  0  0  0  0  0  0
   -1.6551    1.9184    1.7437 O   0  0  0  0  0  0  0  0  0  0  0  0
   -1.2512    2.1282   -0.7957 C   0  0  0  0  0  0  0  0  0  0  0  0
   -1.4820    1.8542   -2.1563 C   0  0  0  0  0  0  0  0  0  0  0  0
   -0.5222    2.1546   -3.1197 C   0  0  0  0  0  0  0  0  0  0  0  0
    0.6887    2.7489   -2.7077 C   0  0  0  0  0  0  0  0  0  0  0  0
    0.9556    3.0676   -1.4395 N   0  0  0  0  0  0  0  0  0  0  0  0
   -0.0042    2.7751   -0.5142 C   0  0  0  0  0  0  0  0  0  0  0  0
    0.1713    3.1337    0.7934 O   0  0  0  0  0  0  0  0  0  0  0  0
    1.4474    3.6377    1.2029 C   0  0  0  0  0  0  0  0  0  0  0  0
   -2.7643    1.1966   -2.7032 C   0  0  0  0  0  0  0  0  0  0  0  0
   -2.7178   -0.1767   -2.7155 F   0  0  0  0  0  0  0  0  0  0  0  0
   -3.9281    1.4943   -2.0440 F   0  0  0  0  0  0  0  0  0  0  0  0
   -3.0376    1.5299   -4.0085 F   0  0  0  0  0  0  0  0  0  0  0  0
    2.8025   -4.2411    1.2638 O   0  0  0  0  0  0  0  0  0  0  0  0
    3.9314   -3.3607    1.2820 C   0  0  0  0  0  0  0  0  0  0  0  0
   -2.7026   -6.8617    1.0719 H   0  0  0  0  0  0  0  0  0  0  0  0
   -1.0307   -6.8308    0.2946 H   0  0  0  0  0  0  0  0  0  0  0  0
   -1.2035   -6.5974    2.1127 H   0  0  0  0  0  0  0  0  0  0  0  0
    0.7504   -5.7202    1.2459 H   0  0  0  0  0  0  0  0  0  0  0  0
   -3.5859   -0.0720   -0.0733 H   0  0  0  0  0  0  0  0  0  0  0  0
   -0.6935    1.9402   -4.1847 H   0  0  0  0  0  0  0  0  0  0  0  0
    1.4817    2.9855   -3.4431 H   0  0  0  0  0  0  0  0  0  0  0  0
    2.2506    2.8948    0.9851 H   0  0  0  0  0  0  0  0  0  0  0  0
    1.6575    4.6136    0.7045 H   0  0  0  0  0  0  0  0  0  0  0  0
    1.3056    3.7666    2.3073 H   0  0  0  0  0  0  0  0  0  0  0  0
    4.7871   -4.0634    1.4494 H   0  0  0  0  0  0  0  0  0  0  0  0
    4.0305   -2.8328    0.3038 H   0  0  0  0  0  0  0  0  0  0  0  0
    3.8427   -2.6286    2.1197 H   0  0  0  0  0  0  0  0  0  0  0  0
  1  2  1  0  0  0  0
  1 30  1  0  0  0  0
  1 31  1  0  0  0  0
  1 32  1  0  0  0  0
  2  3  1  0  0  0  0
  3  4  2  0  0  0  0
  3 11  1  0  0  0  0
  4  5  1  0  0  0  0
  4 33  1  0  0  0  0
  5  6  2  0  0  0  0
  5 28  1  0  0  0  0
  6  7  1  0  0  0  0
  7  8  2  0  0  0  0
  7 11  1  0  0  0  0
  8  9  1  0  0  0  0
  9 10  2  0  0  0  0
  9 12  1  0  0  0  0
 10 11  1  0  0  0  0
 12 13  1  0  0  0  0
 12 34  1  0  0  0  0
 13 14  2  0  0  0  0
 13 15  2  0  0  0  0
 13 16  1  0  0  0  0
 16 17  2  0  0  0  0
 16 21  1  0  0  0  0
 17 18  1  0  0  0  0
 17 24  1  0  0  0  0
 18 19  2  0  0  0  0
 18 35  1  0  0  0  0
 19 20  1  0  0  0  0
 19 36  1  0  0  0  0
 20 21  2  0  0  0  0
 21 22  1  0  0  0  0
 22 23  1  0  0  0  0
 23 37  1  0  0  0  0
 23 38  1  0  0  0  0
 23 39  1  0  0  0  0
 24 25  1  0  0  0  0
 24 26  1  0  0  0  0
 24 27  1  0  0  0  0
 28 29  1  0  0  0  0
 29 40  1  0  0  0  0
 29 41  1  0  0  0  0
 29 42  1  0  0  0  0
M  END
