./865318-97-4.hin
 OpenBabel10051109203D

 45 46  0  0  0  0  0  0  0  0999 V2000
   -3.9018    1.0638    1.1725 N   0  0  0  0  0  0  0  0  0  0  0  0
   -2.8947    0.1896    1.1757 C   0  0  0  0  0  0  0  0  0  0  0  0
   -1.5106    0.5422    0.9875 C   0  0  0  0  0  0  0  0  0  0  0  0
   -1.1618    1.8930    0.7432 C   0  0  0  0  0  0  0  0  0  0  0  0
   -2.2068    2.8257    0.7198 N   0  0  0  0  0  0  0  0  0  0  0  0
   -2.1691    4.1596    0.5305 N   0  0  0  0  0  0  0  0  0  0  0  0
   -3.4749    4.5429    0.6474 C   0  0  0  0  0  0  0  0  0  0  0  0
   -4.3802    3.5112    0.9095 N   0  0  0  0  0  0  0  0  0  0  0  0
   -3.5879    2.3886    0.9620 C   0  0  0  0  0  0  0  0  0  0  0  0
    0.1461    2.3155    0.5808 N   0  0  0  0  0  0  0  0  0  0  0  0
   -0.4424   -0.4885    1.0654 C   0  0  0  0  0  0  0  0  0  0  0  0
   -0.0367   -1.0057   -0.3035 C   0  0  0  0  0  0  0  0  0  0  0  0
    1.0849   -2.0165   -0.1921 C   0  0  0  0  0  0  0  0  0  0  0  0
    1.4911   -2.5370   -1.5542 C   0  0  0  0  0  0  0  0  0  0  0  0
    2.6135   -3.5465   -1.4435 C   0  0  0  0  0  0  0  0  0  0  0  0
    3.0221   -4.0646   -2.8057 C   0  0  0  0  0  0  0  0  0  0  0  0
    4.1449   -5.0744   -2.6968 C   0  0  0  0  0  0  0  0  0  0  0  0
    4.5561   -5.5919   -4.0510 C   0  0  0  0  0  0  0  0  0  0  0  0
   -3.2144   -1.2683    1.3953 C   0  0  0  0  0  0  0  0  0  0  0  0
   -4.6777   -1.6262    1.3457 C   0  0  0  0  0  0  0  0  0  0  0  0
   -3.8011    5.5853    0.5441 H   0  0  0  0  0  0  0  0  0  0  0  0
    0.7958    1.6273    0.2805 H   0  0  0  0  0  0  0  0  0  0  0  0
    0.3272    3.2542    0.3109 H   0  0  0  0  0  0  0  0  0  0  0  0
    0.4611   -0.0823    1.5980 H   0  0  0  0  0  0  0  0  0  0  0  0
   -0.7848   -1.3548    1.6944 H   0  0  0  0  0  0  0  0  0  0  0  0
   -0.9232   -1.4792   -0.8027 H   0  0  0  0  0  0  0  0  0  0  0  0
    0.2883   -0.1547   -0.9575 H   0  0  0  0  0  0  0  0  0  0  0  0
    1.9706   -1.5446    0.3098 H   0  0  0  0  0  0  0  0  0  0  0  0
    0.7567   -2.8723    0.4550 H   0  0  0  0  0  0  0  0  0  0  0  0
    0.6061   -3.0116   -2.0547 H   0  0  0  0  0  0  0  0  0  0  0  0
    1.8174   -1.6815   -2.2026 H   0  0  0  0  0  0  0  0  0  0  0  0
    3.4976   -3.0729   -0.9406 H   0  0  0  0  0  0  0  0  0  0  0  0
    2.2862   -4.4036   -0.7978 H   0  0  0  0  0  0  0  0  0  0  0  0
    2.1384   -4.5387   -3.3088 H   0  0  0  0  0  0  0  0  0  0  0  0
    3.3495   -3.2078   -3.4519 H   0  0  0  0  0  0  0  0  0  0  0  0
    5.0268   -4.5994   -2.1911 H   0  0  0  0  0  0  0  0  0  0  0  0
    3.8157   -5.9305   -2.0502 H   0  0  0  0  0  0  0  0  0  0  0  0
    5.3838   -6.3344   -3.9477 H   0  0  0  0  0  0  0  0  0  0  0  0
    3.6963   -6.0906   -4.5605 H   0  0  0  0  0  0  0  0  0  0  0  0
    4.9110   -4.7563   -4.7016 H   0  0  0  0  0  0  0  0  0  0  0  0
   -2.6654   -1.8576    0.6103 H   0  0  0  0  0  0  0  0  0  0  0  0
   -2.7976   -1.5545    2.4002 H   0  0  0  0  0  0  0  0  0  0  0  0
   -4.7923   -2.7306    1.4741 H   0  0  0  0  0  0  0  0  0  0  0  0
   -5.2465   -1.1148    2.1594 H   0  0  0  0  0  0  0  0  0  0  0  0
   -5.1289   -1.3342    0.3670 H   0  0  0  0  0  0  0  0  0  0  0  0
  1  2  2  0  0  0  0
  1  9  1  0  0  0  0
  2  3  1  0  0  0  0
  2 19  1  0  0  0  0
  3  4  2  0  0  0  0
  3 11  1  0  0  0  0
  4  5  1  0  0  0  0
  4 10  1  0  0  0  0
  5  6  1  0  0  0  0
  5  9  1  0  0  0  0
  6  7  2  0  0  0  0
  7  8  1  0  0  0  0
  7 21  1  0  0  0  0
  8  9  2  0  0  0  0
 10 22  1  0  0  0  0
 10 23  1  0  0  0  0
 11 12  1  0  0  0  0
 11 24  1  0  0  0  0
 11 25  1  0  0  0  0
 12 13  1  0  0  0  0
 12 26  1  0  0  0  0
 12 27  1  0  0  0  0
 13 14  1  0  0  0  0
 13 28  1  0  0  0  0
 13 29  1  0  0  0  0
 14 15  1  0  0  0  0
 14 30  1  0  0  0  0
 14 31  1  0  0  0  0
 15 16  1  0  0  0  0
 15 32  1  0  0  0  0
 15 33  1  0  0  0  0
 16 17  1  0  0  0  0
 16 34  1  0  0  0  0
 16 35  1  0  0  0  0
 17 18  1  0  0  0  0
 17 36  1  0  0  0  0
 17 37  1  0  0  0  0
 18 38  1  0  0  0  0
 18 39  1  0  0  0  0
 18 40  1  0  0  0  0
 19 20  1  0  0  0  0
 19 41  1  0  0  0  0
 19 42  1  0  0  0  0
 20 43  1  0  0  0  0
 20 44  1  0  0  0  0
 20 45  1  0  0  0  0
M  END
