./xxx010.hin
 OpenBabel10051109203D

 34 35  0  0  0  0  0  0  0  0999 V2000
   17.2111   -6.4436    1.7393 C   0  0  0  0  0  0  0  0  0  0  0  0
   13.7515  -11.2131    0.7632 O   0  0  0  0  0  0  0  0  0  0  0  0
   12.4396  -11.3998    1.0797 C   0  0  0  0  0  0  0  0  0  0  0  0
   11.4112  -13.0850   -0.6854 Cl  0  0  0  0  0  0  0  0  0  0  0  0
   11.4920  -11.4279   -0.0883 C   0  0  0  0  0  0  0  0  0  0  0  0
   11.8907  -10.4830   -1.2117 C   0  0  0  0  0  0  0  0  0  0  0  0
   11.2554   -5.0340    0.1825 F   0  0  0  0  0  0  0  0  0  0  0  0
   12.7007   -6.9643   -0.0480 C   0  0  0  0  0  0  0  0  0  0  0  0
   13.9292   -4.4940   -1.2787 O   0  0  0  0  0  0  0  0  0  0  0  0
   17.7519   -5.2477   -1.3169 F   0  0  0  0  0  0  0  0  0  0  0  0
   13.8148   -6.2143    0.4410 N   0  0  0  0  0  0  0  0  0  0  0  0
   14.4435   -5.2214   -0.4232 C   0  0  0  0  0  0  0  0  0  0  0  0
   14.7682   -6.8163    1.2220 N   0  0  0  0  0  0  0  0  0  0  0  0
   15.7995   -5.1592    0.0387 N   0  0  0  0  0  0  0  0  0  0  0  0
   15.9348   -6.1824    1.0250 C   0  0  0  0  0  0  0  0  0  0  0  0
   17.6775   -3.7338    0.1899 F   0  0  0  0  0  0  0  0  0  0  0  0
   16.8457   -4.4310   -0.6637 C   0  0  0  0  0  0  0  0  0  0  0  0
   11.4277   -6.3314   -0.1465 C   0  0  0  0  0  0  0  0  0  0  0  0
   10.3189   -7.0670   -0.6000 C   0  0  0  0  0  0  0  0  0  0  0  0
   12.8054   -8.3225   -0.3895 C   0  0  0  0  0  0  0  0  0  0  0  0
   10.4563   -8.4132   -0.9349 C   0  0  0  0  0  0  0  0  0  0  0  0
   11.6997   -9.0546   -0.8319 C   0  0  0  0  0  0  0  0  0  0  0  0
   12.1625  -11.5280    2.2734 O   0  0  0  0  0  0  0  0  0  0  0  0
    9.0763   -9.2505   -1.4663 Cl  0  0  0  0  0  0  0  0  0  0  0  0
   18.0646   -6.4205    1.0149 H   0  0  0  0  0  0  0  0  0  0  0  0
   17.3719   -5.6463    2.5091 H   0  0  0  0  0  0  0  0  0  0  0  0
   17.1829   -7.4393    2.2464 H   0  0  0  0  0  0  0  0  0  0  0  0
   14.2842  -11.2251    1.5768 H   0  0  0  0  0  0  0  0  0  0  0  0
   10.4618  -11.1848    0.2903 H   0  0  0  0  0  0  0  0  0  0  0  0
   11.2717  -10.7163   -2.1217 H   0  0  0  0  0  0  0  0  0  0  0  0
   12.9669  -10.6660   -1.4830 H   0  0  0  0  0  0  0  0  0  0  0  0
   16.3318   -3.7276   -1.3980 H   0  0  0  0  0  0  0  0  0  0  0  0
    9.3428   -6.5614   -0.6784 H   0  0  0  0  0  0  0  0  0  0  0  0
   13.7727   -8.8492   -0.2952 H   0  0  0  0  0  0  0  0  0  0  0  0
  1 15  1  0  0  0  0
  1 25  1  0  0  0  0
  1 26  1  0  0  0  0
  1 27  1  0  0  0  0
  2  3  1  0  0  0  0
  2 28  1  0  0  0  0
  3  5  1  0  0  0  0
  3 23  2  0  0  0  0
  4  5  1  0  0  0  0
  5  6  1  0  0  0  0
  5 29  1  0  0  0  0
  6 22  1  0  0  0  0
  6 30  1  0  0  0  0
  6 31  1  0  0  0  0
  7 18  1  0  0  0  0
  8 11  1  0  0  0  0
  8 18  2  0  0  0  0
  8 20  1  0  0  0  0
  9 12  2  0  0  0  0
 10 17  1  0  0  0  0
 11 12  1  0  0  0  0
 11 13  1  0  0  0  0
 12 14  1  0  0  0  0
 13 15  2  0  0  0  0
 14 15  1  0  0  0  0
 14 17  1  0  0  0  0
 16 17  1  0  0  0  0
 17 32  1  0  0  0  0
 18 19  1  0  0  0  0
 19 21  2  0  0  0  0
 19 33  1  0  0  0  0
 20 22  2  0  0  0  0
 20 34  1  0  0  0  0
 21 22  1  0  0  0  0
 21 24  1  0  0  0  0
M  END
