./xxx011.hin
 OpenBabel10051109203D

 43 45  0  0  0  0  0  0  0  0999 V2000
    9.7104  -15.4542   -0.2134 Cl  0  0  0  0  0  0  0  0  0  0  0  0
   11.2881  -11.8904    0.5736 C   0  0  0  0  0  0  0  0  0  0  0  0
   10.6231  -13.1069    0.7143 C   0  0  0  0  0  0  0  0  0  0  0  0
   11.8595  -11.5283   -0.6528 C   0  0  0  0  0  0  0  0  0  0  0  0
   10.5223  -13.9715   -0.3793 C   0  0  0  0  0  0  0  0  0  0  0  0
   11.7587  -12.4117   -1.7405 C   0  0  0  0  0  0  0  0  0  0  0  0
   11.0884  -13.6238   -1.6109 C   0  0  0  0  0  0  0  0  0  0  0  0
   12.6150  -10.2969   -0.8264 C   0  0  0  0  0  0  0  0  0  0  0  0
   11.0543   -8.5170    0.2012 C   0  0  0  0  0  0  0  0  0  0  0  0
    9.8133   -9.0076   -0.5878 C   0  0  0  0  0  0  0  0  0  0  0  0
    6.6712   -7.4476   -0.0476 C   0  0  0  0  0  0  0  0  0  0  0  0
    7.7311   -7.6972   -0.8666 N   0  0  0  0  0  0  0  0  0  0  0  0
    6.7976   -8.0517    1.2178 N   0  0  0  0  0  0  0  0  0  0  0  0
    8.5480   -8.4785   -0.1340 N   0  0  0  0  0  0  0  0  0  0  0  0
    7.9839   -8.6893    1.1441 C   0  0  0  0  0  0  0  0  0  0  0  0
   10.9152   -9.0301    1.5198 O   0  0  0  0  0  0  0  0  0  0  0  0
   11.1917   -6.9712    0.1898 C   0  0  0  0  0  0  0  0  0  0  0  0
   12.6778   -6.6555   -0.0370 C   0  0  0  0  0  0  0  0  0  0  0  0
   12.3059   -9.0449   -0.4691 C   0  0  0  0  0  0  0  0  0  0  0  0
   13.2416   -7.8937   -0.7647 C   0  0  0  0  0  0  0  0  0  0  0  0
   10.6166   -6.3037    1.4135 C   0  0  0  0  0  0  0  0  0  0  0  0
   14.5697   -8.1191   -0.3252 O   0  0  0  0  0  0  0  0  0  0  0  0
   13.4429   -6.3376    1.2256 C   0  0  0  0  0  0  0  0  0  0  0  0
   11.3607  -11.2040    1.4339 H   0  0  0  0  0  0  0  0  0  0  0  0
   10.1804  -13.3816    1.6841 H   0  0  0  0  0  0  0  0  0  0  0  0
   12.2112  -12.1419   -2.7070 H   0  0  0  0  0  0  0  0  0  0  0  0
   11.0079  -14.3049   -2.4718 H   0  0  0  0  0  0  0  0  0  0  0  0
   13.5783  -10.4637   -1.3525 H   0  0  0  0  0  0  0  0  0  0  0  0
    9.9671   -8.7412   -1.6713 H   0  0  0  0  0  0  0  0  0  0  0  0
    9.7673  -10.1312   -0.4830 H   0  0  0  0  0  0  0  0  0  0  0  0
    5.8041   -6.8443   -0.3331 H   0  0  0  0  0  0  0  0  0  0  0  0
    8.4890   -9.2756    1.9205 H   0  0  0  0  0  0  0  0  0  0  0  0
   11.6739   -8.7120    2.0267 H   0  0  0  0  0  0  0  0  0  0  0  0
   10.6248   -6.5955   -0.7094 H   0  0  0  0  0  0  0  0  0  0  0  0
   12.7610   -5.7705   -0.7251 H   0  0  0  0  0  0  0  0  0  0  0  0
   13.2503   -7.7097   -1.8780 H   0  0  0  0  0  0  0  0  0  0  0  0
   11.1411   -6.6268    2.3454 H   0  0  0  0  0  0  0  0  0  0  0  0
   10.7145   -5.1948    1.3197 H   0  0  0  0  0  0  0  0  0  0  0  0
    9.5347   -6.5593    1.5250 H   0  0  0  0  0  0  0  0  0  0  0  0
   14.8846   -8.9142   -0.7721 H   0  0  0  0  0  0  0  0  0  0  0  0
   13.3771   -7.1820    1.9531 H   0  0  0  0  0  0  0  0  0  0  0  0
   14.5223   -6.1742    0.9833 H   0  0  0  0  0  0  0  0  0  0  0  0
   13.0412   -5.4122    1.7040 H   0  0  0  0  0  0  0  0  0  0  0  0
  1  5  1  0  0  0  0
  2  3  2  0  0  0  0
  2  4  1  0  0  0  0
  2 24  1  0  0  0  0
  3  5  1  0  0  0  0
  3 25  1  0  0  0  0
  4  6  2  0  0  0  0
  4  8  1  0  0  0  0
  5  7  2  0  0  0  0
  6  7  1  0  0  0  0
  6 26  1  0  0  0  0
  7 27  1  0  0  0  0
  8 19  2  0  0  0  0
  8 28  1  0  0  0  0
  9 10  1  0  0  0  0
  9 16  1  0  0  0  0
  9 17  1  0  0  0  0
  9 19  1  0  0  0  0
 10 14  1  0  0  0  0
 10 29  1  0  0  0  0
 10 30  1  0  0  0  0
 11 12  2  0  0  0  0
 11 13  1  0  0  0  0
 11 31  1  0  0  0  0
 12 14  1  0  0  0  0
 13 15  2  0  0  0  0
 14 15  1  0  0  0  0
 15 32  1  0  0  0  0
 16 33  1  0  0  0  0
 17 18  1  0  0  0  0
 17 21  1  0  0  0  0
 17 34  1  0  0  0  0
 18 20  1  0  0  0  0
 18 23  1  0  0  0  0
 18 35  1  0  0  0  0
 19 20  1  0  0  0  0
 20 22  1  0  0  0  0
 20 36  1  0  0  0  0
 21 37  1  0  0  0  0
 21 38  1  0  0  0  0
 21 39  1  0  0  0  0
 22 40  1  0  0  0  0
 23 41  1  0  0  0  0
 23 42  1  0  0  0  0
 23 43  1  0  0  0  0
M  END
