./xxx016.hin
 OpenBabel10051109203D

 26 27  0  0  0  0  0  0  0  0999 V2000
    7.1341  -12.2157    1.5420 C   0  0  0  0  0  0  0  0  0  0  0  0
    6.6149  -12.9939    0.4669 C   0  0  0  0  0  0  0  0  0  0  0  0
    6.3290  -11.2837    2.2183 C   0  0  0  0  0  0  0  0  0  0  0  0
    5.2423  -12.8094    0.1325 C   0  0  0  0  0  0  0  0  0  0  0  0
    5.0010  -11.1122    1.8445 C   0  0  0  0  0  0  0  0  0  0  0  0
    4.4533  -11.8648    0.8131 C   0  0  0  0  0  0  0  0  0  0  0  0
    7.4141  -13.9319   -0.2065 N   0  0  0  0  0  0  0  0  0  0  0  0
    8.0784  -13.7450   -1.6728 S   0  0  0  0  0  0  0  0  0  0  0  0
    8.1392  -14.9802   -2.3221 O   0  0  0  0  0  0  0  0  0  0  0  0
    7.5168  -12.6714   -2.3654 O   0  0  0  0  0  0  0  0  0  0  0  0
    9.7078  -13.3291   -1.2584 C   0  0  0  0  0  0  0  0  0  0  0  0
   10.4671  -12.3469   -1.8549 N   0  0  0  0  0  0  0  0  0  0  0  0
   10.4290  -14.0183   -0.2706 N   0  0  0  0  0  0  0  0  0  0  0  0
   11.6406  -12.4037   -1.2696 N   0  0  0  0  0  0  0  0  0  0  0  0
   11.6480  -13.4279   -0.2841 C   0  0  0  0  0  0  0  0  0  0  0  0
   12.8437  -13.7049    0.5238 C   0  0  0  0  0  0  0  0  0  0  0  0
   12.7172  -14.7104    1.4218 O   0  0  0  0  0  0  0  0  0  0  0  0
   13.9218  -13.1076    0.4479 O   0  0  0  0  0  0  0  0  0  0  0  0
    8.4209  -12.3719    1.9323 F   0  0  0  0  0  0  0  0  0  0  0  0
    4.6762  -13.5406   -0.8542 F   0  0  0  0  0  0  0  0  0  0  0  0
    6.7649  -10.6967    3.0403 H   0  0  0  0  0  0  0  0  0  0  0  0
    4.3766  -10.3747    2.3731 H   0  0  0  0  0  0  0  0  0  0  0  0
    3.4013  -11.7369    0.5164 H   0  0  0  0  0  0  0  0  0  0  0  0
    7.6369  -14.7230    0.3594 H   0  0  0  0  0  0  0  0  0  0  0  0
   12.3966  -11.7974   -1.5130 H   0  0  0  0  0  0  0  0  0  0  0  0
   13.5606  -14.8139    1.8993 H   0  0  0  0  0  0  0  0  0  0  0  0
  1  2  2  0  0  0  0
  1  3  1  0  0  0  0
  1 19  1  0  0  0  0
  2  4  1  0  0  0  0
  2  7  1  0  0  0  0
  3  5  2  0  0  0  0
  3 21  1  0  0  0  0
  4  6  2  0  0  0  0
  4 20  1  0  0  0  0
  5  6  1  0  0  0  0
  5 22  1  0  0  0  0
  6 23  1  0  0  0  0
  7  8  1  0  0  0  0
  7 24  1  0  0  0  0
  8  9  2  0  0  0  0
  8 10  2  0  0  0  0
  8 11  1  0  0  0  0
 11 12  2  0  0  0  0
 11 13  1  0  0  0  0
 12 14  1  0  0  0  0
 13 15  2  0  0  0  0
 14 15  1  0  0  0  0
 14 25  1  0  0  0  0
 15 16  1  0  0  0  0
 16 17  1  0  0  0  0
 16 18  2  0  0  0  0
 17 26  1  0  0  0  0
M  END
