./xxx019.hin
 OpenBabel10051109203D

 28 29  0  0  0  0  0  0  0  0999 V2000
   11.7239  -12.1722   -2.2921 Cl  0  0  0  0  0  0  0  0  0  0  0  0
   11.3591  -10.1687    3.3384 C   0  0  0  0  0  0  0  0  0  0  0  0
   13.1921   -8.6320    1.5039 Cl  0  0  0  0  0  0  0  0  0  0  0  0
   13.2807   -9.8230   -1.2300 N   0  0  0  0  0  0  0  0  0  0  0  0
   14.9715  -11.6671   -1.3584 O   0  0  0  0  0  0  0  0  0  0  0  0
   14.7724  -10.1312   -3.1776 O   0  0  0  0  0  0  0  0  0  0  0  0
   14.7010  -10.3729   -1.8020 S   0  0  0  0  0  0  0  0  0  0  0  0
   18.8581   -8.2541    0.4963 N   0  0  0  0  0  0  0  0  0  0  0  0
   15.7963   -9.2635   -1.0602 C   0  0  0  0  0  0  0  0  0  0  0  0
   15.6198   -7.9033   -0.9989 N   0  0  0  0  0  0  0  0  0  0  0  0
   17.0117   -9.6636   -0.4874 N   0  0  0  0  0  0  0  0  0  0  0  0
   16.6979   -7.4252   -0.4131 N   0  0  0  0  0  0  0  0  0  0  0  0
   17.5917   -8.4936   -0.0787 C   0  0  0  0  0  0  0  0  0  0  0  0
   12.3153  -10.0095    1.0210 C   0  0  0  0  0  0  0  0  0  0  0  0
   12.4403  -10.4742   -0.3117 C   0  0  0  0  0  0  0  0  0  0  0  0
   11.4792  -10.6538    1.9436 C   0  0  0  0  0  0  0  0  0  0  0  0
   11.6649  -11.5932   -0.6979 C   0  0  0  0  0  0  0  0  0  0  0  0
   10.7514  -11.7753    1.5306 C   0  0  0  0  0  0  0  0  0  0  0  0
   10.8398  -12.2405    0.2245 C   0  0  0  0  0  0  0  0  0  0  0  0
   12.3580  -10.1874    3.8432 H   0  0  0  0  0  0  0  0  0  0  0  0
   10.9805   -9.1155    3.3528 H   0  0  0  0  0  0  0  0  0  0  0  0
   10.6542  -10.8056    3.9271 H   0  0  0  0  0  0  0  0  0  0  0  0
   12.9526   -8.9114   -1.4659 H   0  0  0  0  0  0  0  0  0  0  0  0
   19.4872   -9.0104    0.3006 H   0  0  0  0  0  0  0  0  0  0  0  0
   18.7780   -8.0998    1.4837 H   0  0  0  0  0  0  0  0  0  0  0  0
   16.8297   -6.4496   -0.2690 H   0  0  0  0  0  0  0  0  0  0  0  0
   10.0987  -12.2940    2.2502 H   0  0  0  0  0  0  0  0  0  0  0  0
   10.2560  -13.1212   -0.0879 H   0  0  0  0  0  0  0  0  0  0  0  0
  1 17  1  0  0  0  0
  2 16  1  0  0  0  0
  2 20  1  0  0  0  0
  2 21  1  0  0  0  0
  2 22  1  0  0  0  0
  3 14  1  0  0  0  0
  4  7  1  0  0  0  0
  4 15  1  0  0  0  0
  4 23  1  0  0  0  0
  5  7  2  0  0  0  0
  6  7  2  0  0  0  0
  7  9  1  0  0  0  0
  8 13  1  0  0  0  0
  8 24  1  0  0  0  0
  8 25  1  0  0  0  0
  9 10  2  0  0  0  0
  9 11  1  0  0  0  0
 10 12  1  0  0  0  0
 11 13  2  0  0  0  0
 12 13  1  0  0  0  0
 12 26  1  0  0  0  0
 14 15  2  0  0  0  0
 14 16  1  0  0  0  0
 15 17  1  0  0  0  0
 16 18  2  0  0  0  0
 17 19  2  0  0  0  0
 18 19  1  0  0  0  0
 18 27  1  0  0  0  0
 19 28  1  0  0  0  0
M  END
