./xxx022.hin
 OpenBabel10051109203D

 36 38  0  0  0  0  0  0  0  0999 V2000
   12.8027  -12.9396    1.4795 Cl  0  0  0  0  0  0  0  0  0  0  0  0
   11.5266  -12.1725    0.6523 C   0  0  0  0  0  0  0  0  0  0  0  0
   10.9869  -10.9855    1.1665 C   0  0  0  0  0  0  0  0  0  0  0  0
   11.5463  -10.3534    2.3841 C   0  0  0  0  0  0  0  0  0  0  0  0
    9.9040  -10.3932    0.5071 C   0  0  0  0  0  0  0  0  0  0  0  0
    9.3521  -10.9797   -0.6246 C   0  0  0  0  0  0  0  0  0  0  0  0
    9.8867  -12.1651   -1.1361 C   0  0  0  0  0  0  0  0  0  0  0  0
    9.1411  -12.8778   -2.4827 Cl  0  0  0  0  0  0  0  0  0  0  0  0
   11.0193  -12.7606   -0.5336 C   0  0  0  0  0  0  0  0  0  0  0  0
   11.5984  -13.9287   -1.0609 N   0  0  0  0  0  0  0  0  0  0  0  0
   12.5386  -14.0842   -2.3686 S   0  0  0  0  0  0  0  0  0  0  0  0
   12.7123  -15.4565   -2.5953 O   0  0  0  0  0  0  0  0  0  0  0  0
   12.1419  -13.3055   -3.4522 O   0  0  0  0  0  0  0  0  0  0  0  0
   14.0578  -13.4301   -1.8194 C   0  0  0  0  0  0  0  0  0  0  0  0
   14.1332  -12.1001   -1.3634 N   0  0  0  0  0  0  0  0  0  0  0  0
   15.4527  -11.9118   -1.0759 C   0  0  0  0  0  0  0  0  0  0  0  0
   16.1294  -10.8051   -0.5931 N   0  0  0  0  0  0  0  0  0  0  0  0
   17.4488  -10.9596   -0.4262 C   0  0  0  0  0  0  0  0  0  0  0  0
   18.1923  -12.1614   -0.7054 C   0  0  0  0  0  0  0  0  0  0  0  0
   17.5097  -13.2704   -1.1863 C   0  0  0  0  0  0  0  0  0  0  0  0
   16.1380  -13.1930   -1.3841 N   0  0  0  0  0  0  0  0  0  0  0  0
   15.2517  -14.0912   -1.8318 N   0  0  0  0  0  0  0  0  0  0  0  0
   18.0563   -9.8236    0.0621 O   0  0  0  0  0  0  0  0  0  0  0  0
   19.4728   -9.8781    0.2181 C   0  0  0  0  0  0  0  0  0  0  0  0
   18.0987  -14.4682   -1.4856 O   0  0  0  0  0  0  0  0  0  0  0  0
   10.9962   -9.4147    2.6393 H   0  0  0  0  0  0  0  0  0  0  0  0
   11.4755  -11.0532    3.2546 H   0  0  0  0  0  0  0  0  0  0  0  0
   12.6253  -10.0996    2.2260 H   0  0  0  0  0  0  0  0  0  0  0  0
    9.4810   -9.4532    0.8948 H   0  0  0  0  0  0  0  0  0  0  0  0
    8.4873  -10.5120   -1.1217 H   0  0  0  0  0  0  0  0  0  0  0  0
   11.4592  -14.7194   -0.4654 H   0  0  0  0  0  0  0  0  0  0  0  0
   19.2742  -12.2125   -0.5457 H   0  0  0  0  0  0  0  0  0  0  0  0
   19.7179   -8.8490    0.5891 H   0  0  0  0  0  0  0  0  0  0  0  0
   19.7568  -10.6477    0.9758 H   0  0  0  0  0  0  0  0  0  0  0  0
   19.9730  -10.0736   -0.7607 H   0  0  0  0  0  0  0  0  0  0  0  0
   19.0521  -14.3756   -1.3170 H   0  0  0  0  0  0  0  0  0  0  0  0
  1  2  1  0  0  0  0
  2  3  2  0  0  0  0
  2  9  1  0  0  0  0
  3  4  1  0  0  0  0
  3  5  1  0  0  0  0
  4 26  1  0  0  0  0
  4 27  1  0  0  0  0
  4 28  1  0  0  0  0
  5  6  2  0  0  0  0
  5 29  1  0  0  0  0
  6  7  1  0  0  0  0
  6 30  1  0  0  0  0
  7  8  1  0  0  0  0
  7  9  2  0  0  0  0
  9 10  1  0  0  0  0
 10 11  1  0  0  0  0
 10 31  1  0  0  0  0
 11 12  2  0  0  0  0
 11 13  2  0  0  0  0
 11 14  1  0  0  0  0
 14 15  1  0  0  0  0
 14 22  2  0  0  0  0
 15 16  2  0  0  0  0
 16 17  1  0  0  0  0
 16 21  1  0  0  0  0
 17 18  2  0  0  0  0
 18 19  1  0  0  0  0
 18 23  1  0  0  0  0
 19 20  2  0  0  0  0
 19 32  1  0  0  0  0
 20 21  1  0  0  0  0
 20 25  1  0  0  0  0
 21 22  1  0  0  0  0
 23 24  1  0  0  0  0
 24 33  1  0  0  0  0
 24 34  1  0  0  0  0
 24 35  1  0  0  0  0
 25 36  1  0  0  0  0
M  END
