./xxx023.hin
 OpenBabel10051109203D

 38 39  0  0  0  0  0  0  0  0999 V2000
   13.0242   -6.7526   -1.0250 C   0  0  0  0  0  0  0  0  0  0  0  0
   14.3677   -6.9322    1.0704 C   0  0  0  0  0  0  0  0  0  0  0  0
   12.7842   -5.0517    0.7494 C   0  0  0  0  0  0  0  0  0  0  0  0
   13.0192   -6.5390    0.4789 C   0  0  0  0  0  0  0  0  0  0  0  0
   11.2077   -6.7985    2.0314 O   0  0  0  0  0  0  0  0  0  0  0  0
   11.9134   -7.3249    1.1649 C   0  0  0  0  0  0  0  0  0  0  0  0
   11.5692   -8.7919    0.8266 C   0  0  0  0  0  0  0  0  0  0  0  0
   10.6128   -8.7958   -0.3781 C   0  0  0  0  0  0  0  0  0  0  0  0
    7.4820  -13.8638   -0.9135 Cl  0  0  0  0  0  0  0  0  0  0  0  0
    9.8512  -10.0673   -0.5029 C   0  0  0  0  0  0  0  0  0  0  0  0
   10.0056  -10.8785   -1.6325 C   0  0  0  0  0  0  0  0  0  0  0  0
    8.9439  -10.4467    0.4943 C   0  0  0  0  0  0  0  0  0  0  0  0
    9.2739  -12.0569   -1.7649 C   0  0  0  0  0  0  0  0  0  0  0  0
    8.2087  -11.6229    0.3727 C   0  0  0  0  0  0  0  0  0  0  0  0
    8.3765  -12.4279   -0.7591 C   0  0  0  0  0  0  0  0  0  0  0  0
   13.2361  -10.2370   -0.4971 C   0  0  0  0  0  0  0  0  0  0  0  0
   12.7177   -9.6697    0.6885 N   0  0  0  0  0  0  0  0  0  0  0  0
   14.3021  -11.0066   -0.1964 N   0  0  0  0  0  0  0  0  0  0  0  0
   13.4551  -10.0796    1.7409 N   0  0  0  0  0  0  0  0  0  0  0  0
   14.4109  -10.8858    1.2013 C   0  0  0  0  0  0  0  0  0  0  0  0
   13.7980   -6.0928   -1.4891 H   0  0  0  0  0  0  0  0  0  0  0  0
   13.2720   -7.8092   -1.2855 H   0  0  0  0  0  0  0  0  0  0  0  0
   12.0300   -6.4908   -1.4610 H   0  0  0  0  0  0  0  0  0  0  0  0
   15.1103   -6.1190    0.8804 H   0  0  0  0  0  0  0  0  0  0  0  0
   14.2830   -7.0843    2.1731 H   0  0  0  0  0  0  0  0  0  0  0  0
   14.7573   -7.8672    0.6031 H   0  0  0  0  0  0  0  0  0  0  0  0
   13.5721   -4.4432    0.2460 H   0  0  0  0  0  0  0  0  0  0  0  0
   11.7841   -4.7428    0.3627 H   0  0  0  0  0  0  0  0  0  0  0  0
   12.8155   -4.8536    1.8477 H   0  0  0  0  0  0  0  0  0  0  0  0
   10.9754   -9.1742    1.7226 H   0  0  0  0  0  0  0  0  0  0  0  0
   11.1677   -8.5756   -1.3281 H   0  0  0  0  0  0  0  0  0  0  0  0
    9.8851   -7.9518   -0.2136 H   0  0  0  0  0  0  0  0  0  0  0  0
   10.7077  -10.5885   -2.4293 H   0  0  0  0  0  0  0  0  0  0  0  0
    8.8059   -9.8098    1.3822 H   0  0  0  0  0  0  0  0  0  0  0  0
    9.4047  -12.6898   -2.6559 H   0  0  0  0  0  0  0  0  0  0  0  0
    7.5004  -11.9147    1.1632 H   0  0  0  0  0  0  0  0  0  0  0  0
   12.8002  -10.0809   -1.4885 H   0  0  0  0  0  0  0  0  0  0  0  0
   15.1845  -11.3958    1.7842 H   0  0  0  0  0  0  0  0  0  0  0  0
  1  4  1  0  0  0  0
  1 21  1  0  0  0  0
  1 22  1  0  0  0  0
  1 23  1  0  0  0  0
  2  4  1  0  0  0  0
  2 24  1  0  0  0  0
  2 25  1  0  0  0  0
  2 26  1  0  0  0  0
  3  4  1  0  0  0  0
  3 27  1  0  0  0  0
  3 28  1  0  0  0  0
  3 29  1  0  0  0  0
  4  6  1  0  0  0  0
  5  6  2  0  0  0  0
  6  7  1  0  0  0  0
  7  8  1  0  0  0  0
  7 17  1  0  0  0  0
  7 30  1  0  0  0  0
  8 10  1  0  0  0  0
  8 31  1  0  0  0  0
  8 32  1  0  0  0  0
  9 15  1  0  0  0  0
 10 11  2  0  0  0  0
 10 12  1  0  0  0  0
 11 13  1  0  0  0  0
 11 33  1  0  0  0  0
 12 14  2  0  0  0  0
 12 34  1  0  0  0  0
 13 15  2  0  0  0  0
 13 35  1  0  0  0  0
 14 15  1  0  0  0  0
 14 36  1  0  0  0  0
 16 17  1  0  0  0  0
 16 18  2  0  0  0  0
 16 37  1  0  0  0  0
 17 19  1  0  0  0  0
 18 20  1  0  0  0  0
 19 20  2  0  0  0  0
 20 38  1  0  0  0  0
M  END
