./000068-35-9.hin
 OpenBabel10071114553D

 27 28  0  0  0  0  0  0  0  0999 V2000
   -0.4800    2.9760   -0.0000 N   0  0  0  0  0  0  0  0  0  0  0  0
    0.7151    2.2677   -0.0002 C   0  0  0  0  0  0  0  0  0  0  0  0
    1.9792    2.8406   -0.0002 N   0  0  0  0  0  0  0  0  0  0  0  0
    2.0126    4.1844   -0.0001 C   0  0  0  0  0  0  0  0  0  0  0  0
    0.8594    4.9878   -0.0000 C   0  0  0  0  0  0  0  0  0  0  0  0
   -0.3763    4.3132    0.0001 C   0  0  0  0  0  0  0  0  0  0  0  0
    0.6047    0.8669   -0.0003 N   0  0  0  0  0  0  0  0  0  0  0  0
   -0.8559    0.0845    0.0002 S   0  0  0  0  0  0  0  0  0  0  0  0
   -1.5499    0.3384    1.1888 O   0  0  0  0  0  0  0  0  0  0  0  0
   -1.5507    0.3384   -1.1879 O   0  0  0  0  0  0  0  0  0  0  0  0
   -0.3987   -1.5419    0.0001 C   0  0  0  0  0  0  0  0  0  0  0  0
   -1.4952   -2.4294   -0.0000 C   0  0  0  0  0  0  0  0  0  0  0  0
   -1.3439   -3.8007   -0.0001 C   0  0  0  0  0  0  0  0  0  0  0  0
   -0.0417   -4.3734   -0.0001 C   0  0  0  0  0  0  0  0  0  0  0  0
    1.0692   -3.4886    0.0000 C   0  0  0  0  0  0  0  0  0  0  0  0
    0.8763   -2.1170    0.0001 C   0  0  0  0  0  0  0  0  0  0  0  0
    0.1332   -5.7310   -0.0005 N   0  0  0  0  0  0  0  0  0  0  0  0
    3.0243    4.6312   -0.0001 H   0  0  0  0  0  0  0  0  0  0  0  0
    0.9177    6.0805    0.0001 H   0  0  0  0  0  0  0  0  0  0  0  0
   -1.3364    4.8628    0.0002 H   0  0  0  0  0  0  0  0  0  0  0  0
    1.4831    0.4033   -0.0006 H   0  0  0  0  0  0  0  0  0  0  0  0
   -2.5179   -2.0071   -0.0001 H   0  0  0  0  0  0  0  0  0  0  0  0
   -2.2328   -4.4487   -0.0001 H   0  0  0  0  0  0  0  0  0  0  0  0
    2.0929   -3.8913    0.0001 H   0  0  0  0  0  0  0  0  0  0  0  0
    1.7891   -1.4984    0.0003 H   0  0  0  0  0  0  0  0  0  0  0  0
    1.0421   -6.1154    0.0002 H   0  0  0  0  0  0  0  0  0  0  0  0
   -0.6494   -6.3325    0.0001 H   0  0  0  0  0  0  0  0  0  0  0  0
  1  2  2  0  0  0  0
  1  6  1  0  0  0  0
  2  3  1  0  0  0  0
  2  7  1  0  0  0  0
  3  4  2  0  0  0  0
  4  5  1  0  0  0  0
  4 18  1  0  0  0  0
  5  6  2  0  0  0  0
  5 19  1  0  0  0  0
  6 20  1  0  0  0  0
  7  8  1  0  0  0  0
  7 21  1  0  0  0  0
  8  9  2  0  0  0  0
  8 10  2  0  0  0  0
  8 11  1  0  0  0  0
 11 12  2  0  0  0  0
 11 16  1  0  0  0  0
 12 13  1  0  0  0  0
 12 22  1  0  0  0  0
 13 14  2  0  0  0  0
 13 23  1  0  0  0  0
 14 15  1  0  0  0  0
 14 17  1  0  0  0  0
 15 16  2  0  0  0  0
 15 24  1  0  0  0  0
 16 25  1  0  0  0  0
 17 26  1  0  0  0  0
 17 27  1  0  0  0  0
M  END
