./000108-78-1.hin
 OpenBabel10071114553D

 15 15  0  0  0  0  0  0  0  0999 V2000
   -1.4824   -0.5526    0.0000 N   0  0  0  0  0  0  0  0  0  0  0  0
   -1.4151    0.8337    0.0000 C   0  0  0  0  0  0  0  0  0  0  0  0
   -0.2481    1.5852    0.0000 N   0  0  0  0  0  0  0  0  0  0  0  0
    0.9189    0.8338   -0.0000 C   0  0  0  0  0  0  0  0  0  0  0  0
    0.9862   -0.5526   -0.0000 N   0  0  0  0  0  0  0  0  0  0  0  0
   -0.2481   -1.1875   -0.0000 C   0  0  0  0  0  0  0  0  0  0  0  0
   -0.2481   -2.5706   -0.0000 N   0  0  0  0  0  0  0  0  0  0  0  0
    2.1166    1.5253   -0.0000 N   0  0  0  0  0  0  0  0  0  0  0  0
   -2.6129    1.5253    0.0000 N   0  0  0  0  0  0  0  0  0  0  0  0
    0.6085   -3.0624   -0.0000 H   0  0  0  0  0  0  0  0  0  0  0  0
   -1.1047   -3.0624   -0.0000 H   0  0  0  0  0  0  0  0  0  0  0  0
    2.1142    2.5131   -0.0000 H   0  0  0  0  0  0  0  0  0  0  0  0
    2.9708    1.0294   -0.0000 H   0  0  0  0  0  0  0  0  0  0  0  0
   -3.4671    1.0293    0.0000 H   0  0  0  0  0  0  0  0  0  0  0  0
   -2.6105    2.5130    0.0000 H   0  0  0  0  0  0  0  0  0  0  0  0
  1  2  2  0  0  0  0
  1  6  1  0  0  0  0
  2  3  1  0  0  0  0
  2  9  1  0  0  0  0
  3  4  2  0  0  0  0
  4  5  1  0  0  0  0
  4  8  1  0  0  0  0
  5  6  2  0  0  0  0
  6  7  1  0  0  0  0
  7 10  1  0  0  0  0
  7 11  1  0  0  0  0
  8 12  1  0  0  0  0
  8 13  1  0  0  0  0
  9 14  1  0  0  0  0
  9 15  1  0  0  0  0
M  END
