./001918-02-1.hin
 OpenBabel10071114553D

 16 16  0  0  0  0  0  0  0  0999 V2000
   -1.4149   -0.1551   -0.0000 C   0  0  0  0  0  0  0  0  0  0  0  0
   -0.1881   -0.8495   -0.0000 C   0  0  0  0  0  0  0  0  0  0  0  0
    1.0085   -0.2108   -0.0000 N   0  0  0  0  0  0  0  0  0  0  0  0
    1.0245    1.1341   -0.0000 C   0  0  0  0  0  0  0  0  0  0  0  0
   -0.1419    1.9279   -0.0000 C   0  0  0  0  0  0  0  0  0  0  0  0
   -1.4077    1.2802   -0.0000 C   0  0  0  0  0  0  0  0  0  0  0  0
   -2.5698    1.9982   -0.0000 N   0  0  0  0  0  0  0  0  0  0  0  0
   -0.0450    3.6173   -0.0000 Cl  0  0  0  0  0  0  0  0  0  0  0  0
    2.5514    1.9024   -0.0000 Cl  0  0  0  0  0  0  0  0  0  0  0  0
   -2.9191   -0.9323   -0.0000 Cl  0  0  0  0  0  0  0  0  0  0  0  0
   -0.1523   -2.3463    0.0000 C   0  0  0  0  0  0  0  0  0  0  0  0
   -1.0964   -3.1418    0.0000 O   0  0  0  0  0  0  0  0  0  0  0  0
    1.0872   -2.9130    0.0000 O   0  0  0  0  0  0  0  0  0  0  0  0
   -2.5436    2.9872   -0.0000 H   0  0  0  0  0  0  0  0  0  0  0  0
   -3.4438    1.5336   -0.0000 H   0  0  0  0  0  0  0  0  0  0  0  0
    0.9872   -3.8812    0.0000 H   0  0  0  0  0  0  0  0  0  0  0  0
  1  2  2  0  0  0  0
  1  6  1  0  0  0  0
  1 10  1  0  0  0  0
  2  3  1  0  0  0  0
  2 11  1  0  0  0  0
  3  4  2  0  0  0  0
  4  5  1  0  0  0  0
  4  9  1  0  0  0  0
  5  6  2  0  0  0  0
  5  8  1  0  0  0  0
  6  7  1  0  0  0  0
  7 14  1  0  0  0  0
  7 15  1  0  0  0  0
 11 12  2  0  0  0  0
 11 13  1  0  0  0  0
 13 16  1  0  0  0  0
M  END
