./023103-98-2.hin
 OpenBabel10071114553D

 35 35  0  0  0  0  0  0  0  0999 V2000
   -1.9788   -1.8310   -0.2744 C   0  0  0  0  0  0  0  0  0  0  0  0
   -1.8165   -0.4297   -0.1379 C   0  0  0  0  0  0  0  0  0  0  0  0
   -0.6446    0.1874    0.1227 N   0  0  0  0  0  0  0  0  0  0  0  0
    0.4581   -0.6460    0.2668 C   0  0  0  0  0  0  0  0  0  0  0  0
    0.4112   -2.0287    0.1355 N   0  0  0  0  0  0  0  0  0  0  0  0
   -0.7894   -2.5881   -0.1194 C   0  0  0  0  0  0  0  0  0  0  0  0
   -0.8748   -4.0750   -0.2642 C   0  0  0  0  0  0  0  0  0  0  0  0
   -3.2806   -2.4582   -0.5569 C   0  0  0  0  0  0  0  0  0  0  0  0
    1.6871   -0.0515    0.6414 N   0  0  0  0  0  0  0  0  0  0  0  0
    1.8311    1.3719    0.4467 C   0  0  0  0  0  0  0  0  0  0  0  0
    2.8863   -0.8402    0.4911 C   0  0  0  0  0  0  0  0  0  0  0  0
   -2.9744    0.3351   -0.2094 O   0  0  0  0  0  0  0  0  0  0  0  0
   -2.8564    1.6456   -0.7132 C   0  0  0  0  0  0  0  0  0  0  0  0
   -2.2794    1.7766   -1.7975 O   0  0  0  0  0  0  0  0  0  0  0  0
   -3.4476    2.6238    0.0682 N   0  0  0  0  0  0  0  0  0  0  0  0
   -3.7046    3.9067   -0.5339 C   0  0  0  0  0  0  0  0  0  0  0  0
   -4.2374    2.2714    1.2159 C   0  0  0  0  0  0  0  0  0  0  0  0
    0.0807   -4.5857    0.0084 H   0  0  0  0  0  0  0  0  0  0  0  0
   -1.6920   -4.4613    0.3946 H   0  0  0  0  0  0  0  0  0  0  0  0
   -1.1237   -4.3233   -1.3265 H   0  0  0  0  0  0  0  0  0  0  0  0
   -4.0452   -1.6890   -0.8294 H   0  0  0  0  0  0  0  0  0  0  0  0
   -3.1894   -3.1841   -1.4043 H   0  0  0  0  0  0  0  0  0  0  0  0
   -3.6467   -3.0172    0.3419 H   0  0  0  0  0  0  0  0  0  0  0  0
    2.8530    1.6854    0.7879 H   0  0  0  0  0  0  0  0  0  0  0  0
    1.6991    1.6702   -0.6282 H   0  0  0  0  0  0  0  0  0  0  0  0
    1.0683    1.9140    1.0668 H   0  0  0  0  0  0  0  0  0  0  0  0
    3.7628   -0.2419    0.8560 H   0  0  0  0  0  0  0  0  0  0  0  0
    2.8069   -1.7693    1.1161 H   0  0  0  0  0  0  0  0  0  0  0  0
    3.0696   -1.1380   -0.5764 H   0  0  0  0  0  0  0  0  0  0  0  0
   -3.5143    4.7027    0.2345 H   0  0  0  0  0  0  0  0  0  0  0  0
   -3.0200    4.0650   -1.4095 H   0  0  0  0  0  0  0  0  0  0  0  0
   -4.7704    3.9843   -0.8813 H   0  0  0  0  0  0  0  0  0  0  0  0
   -4.2131    3.1281    1.9412 H   0  0  0  0  0  0  0  0  0  0  0  0
   -5.3052    2.0672    0.9313 H   0  0  0  0  0  0  0  0  0  0  0  0
   -3.8121    1.3582    1.7099 H   0  0  0  0  0  0  0  0  0  0  0  0
  1  2  2  0  0  0  0
  1  6  1  0  0  0  0
  1  8  1  0  0  0  0
  2  3  1  0  0  0  0
  2 12  1  0  0  0  0
  3  4  2  0  0  0  0
  4  5  1  0  0  0  0
  4  9  1  0  0  0  0
  5  6  2  0  0  0  0
  6  7  1  0  0  0  0
  7 18  1  0  0  0  0
  7 19  1  0  0  0  0
  7 20  1  0  0  0  0
  8 21  1  0  0  0  0
  8 22  1  0  0  0  0
  8 23  1  0  0  0  0
  9 10  1  0  0  0  0
  9 11  1  0  0  0  0
 10 24  1  0  0  0  0
 10 25  1  0  0  0  0
 10 26  1  0  0  0  0
 11 27  1  0  0  0  0
 11 28  1  0  0  0  0
 11 29  1  0  0  0  0
 12 13  1  0  0  0  0
 13 14  2  0  0  0  0
 13 15  1  0  0  0  0
 15 16  1  0  0  0  0
 15 17  1  0  0  0  0
 16 30  1  0  0  0  0
 16 31  1  0  0  0  0
 16 32  1  0  0  0  0
 17 33  1  0  0  0  0
 17 34  1  0  0  0  0
 17 35  1  0  0  0  0
M  END
