./041483-43-6.hin
 OpenBabel10071114553D

 45 45  0  0  0  0  0  0  0  0999 V2000
   -0.1044   -1.7492    0.3875 C   0  0  0  0  0  0  0  0  0  0  0  0
    0.0556   -0.3385    0.3862 C   0  0  0  0  0  0  0  0  0  0  0  0
    1.2425    0.3032    0.2448 N   0  0  0  0  0  0  0  0  0  0  0  0
    2.3498   -0.5165    0.1035 C   0  0  0  0  0  0  0  0  0  0  0  0
    2.3051   -1.9034    0.1174 N   0  0  0  0  0  0  0  0  0  0  0  0
    1.0948   -2.4898    0.2463 C   0  0  0  0  0  0  0  0  0  0  0  0
    3.6118    0.0711   -0.1574 N   0  0  0  0  0  0  0  0  0  0  0  0
    3.9232    1.3751    0.3786 C   0  0  0  0  0  0  0  0  0  0  0  0
    4.0564    1.4729    1.8898 C   0  0  0  0  0  0  0  0  0  0  0  0
    1.0301   -3.9853    0.2633 C   0  0  0  0  0  0  0  0  0  0  0  0
   -1.4383   -2.3704    0.5490 C   0  0  0  0  0  0  0  0  0  0  0  0
   -2.1185   -2.6201   -0.7852 C   0  0  0  0  0  0  0  0  0  0  0  0
   -3.4766   -3.2603   -0.5902 C   0  0  0  0  0  0  0  0  0  0  0  0
   -4.1638   -3.5082   -1.9082 C   0  0  0  0  0  0  0  0  0  0  0  0
   -1.0410    0.4417    0.5371 O   0  0  0  0  0  0  0  0  0  0  0  0
   -1.0586    2.1566    0.7145 S   0  0  0  0  0  0  0  0  0  0  0  0
   -2.4352    2.3062    0.8113 O   0  0  0  0  0  0  0  0  0  0  0  0
   -0.2637    2.4270    1.8153 O   0  0  0  0  0  0  0  0  0  0  0  0
   -0.4852    2.7437   -0.6553 N   0  0  0  0  0  0  0  0  0  0  0  0
    0.8462    3.2654   -0.7849 C   0  0  0  0  0  0  0  0  0  0  0  0
   -1.2486    2.7126   -1.8715 C   0  0  0  0  0  0  0  0  0  0  0  0
    4.3666   -0.5818   -0.0584 H   0  0  0  0  0  0  0  0  0  0  0  0
    4.9034    1.6745   -0.0961 H   0  0  0  0  0  0  0  0  0  0  0  0
    3.1406    2.1076    0.0302 H   0  0  0  0  0  0  0  0  0  0  0  0
    4.3521    2.5144    2.1623 H   0  0  0  0  0  0  0  0  0  0  0  0
    3.0862    1.2389    2.3915 H   0  0  0  0  0  0  0  0  0  0  0  0
    4.8354    0.7716    2.2742 H   0  0  0  0  0  0  0  0  0  0  0  0
    0.7464   -4.3261    1.2906 H   0  0  0  0  0  0  0  0  0  0  0  0
    0.2495   -4.3298   -0.4594 H   0  0  0  0  0  0  0  0  0  0  0  0
    2.0061   -4.4555   -0.0107 H   0  0  0  0  0  0  0  0  0  0  0  0
   -1.3417   -3.3403    1.1077 H   0  0  0  0  0  0  0  0  0  0  0  0
   -2.0873   -1.6899    1.1668 H   0  0  0  0  0  0  0  0  0  0  0  0
   -2.2358   -1.6456   -1.3280 H   0  0  0  0  0  0  0  0  0  0  0  0
   -1.4770   -3.2829   -1.4231 H   0  0  0  0  0  0  0  0  0  0  0  0
   -3.3580   -4.2304   -0.0388 H   0  0  0  0  0  0  0  0  0  0  0  0
   -4.1147   -2.5934    0.0482 H   0  0  0  0  0  0  0  0  0  0  0  0
   -5.1617   -3.9812   -1.7425 H   0  0  0  0  0  0  0  0  0  0  0  0
   -4.3156   -2.5489   -2.4597 H   0  0  0  0  0  0  0  0  0  0  0  0
   -3.5533   -4.1880   -2.5505 H   0  0  0  0  0  0  0  0  0  0  0  0
    1.4535    2.6327   -1.4874 H   0  0  0  0  0  0  0  0  0  0  0  0
    0.8078    4.3135   -1.1886 H   0  0  0  0  0  0  0  0  0  0  0  0
    1.3470    3.2790    0.2221 H   0  0  0  0  0  0  0  0  0  0  0  0
   -1.3274    3.7462   -2.3047 H   0  0  0  0  0  0  0  0  0  0  0  0
   -0.7558    2.0464   -2.6303 H   0  0  0  0  0  0  0  0  0  0  0  0
   -2.2844    2.3290   -1.6612 H   0  0  0  0  0  0  0  0  0  0  0  0
  1  2  2  0  0  0  0
  1  6  1  0  0  0  0
  1 11  1  0  0  0  0
  2  3  1  0  0  0  0
  2 15  1  0  0  0  0
  3  4  2  0  0  0  0
  4  5  1  0  0  0  0
  4  7  1  0  0  0  0
  5  6  2  0  0  0  0
  6 10  1  0  0  0  0
  7  8  1  0  0  0  0
  7 22  1  0  0  0  0
  8  9  1  0  0  0  0
  8 23  1  0  0  0  0
  8 24  1  0  0  0  0
  9 25  1  0  0  0  0
  9 26  1  0  0  0  0
  9 27  1  0  0  0  0
 10 28  1  0  0  0  0
 10 29  1  0  0  0  0
 10 30  1  0  0  0  0
 11 12  1  0  0  0  0
 11 31  1  0  0  0  0
 11 32  1  0  0  0  0
 12 13  1  0  0  0  0
 12 33  1  0  0  0  0
 12 34  1  0  0  0  0
 13 14  1  0  0  0  0
 13 35  1  0  0  0  0
 13 36  1  0  0  0  0
 14 37  1  0  0  0  0
 14 38  1  0  0  0  0
 14 39  1  0  0  0  0
 15 16  1  0  0  0  0
 16 17  2  0  0  0  0
 16 18  2  0  0  0  0
 16 19  1  0  0  0  0
 19 20  1  0  0  0  0
 19 21  1  0  0  0  0
 20 40  1  0  0  0  0
 20 41  1  0  0  0  0
 20 42  1  0  0  0  0
 21 43  1  0  0  0  0
 21 44  1  0  0  0  0
 21 45  1  0  0  0  0
M  END
