./056425-91-3.hin
 OpenBabel10071114553D

 37 38  0  0  0  0  0  0  0  0999 V2000
   -3.8953   -3.1636    0.9850 N   0  0  0  0  0  0  0  0  0  0  0  0
   -3.6647   -1.8632    0.7209 C   0  0  0  0  0  0  0  0  0  0  0  0
   -2.4113   -1.3914    0.2603 C   0  0  0  0  0  0  0  0  0  0  0  0
   -1.3949   -2.3580    0.1094 C   0  0  0  0  0  0  0  0  0  0  0  0
   -1.5981   -3.6669    0.3651 N   0  0  0  0  0  0  0  0  0  0  0  0
   -2.8448   -4.0072    0.7889 C   0  0  0  0  0  0  0  0  0  0  0  0
   -2.2238    0.0714   -0.0437 C   0  0  0  0  0  0  0  0  0  0  0  0
   -3.0167    0.7455    0.9522 O   0  0  0  0  0  0  0  0  0  0  0  0
   -2.8573    0.4207   -1.4204 C   0  0  0  0  0  0  0  0  0  0  0  0
   -2.5665    1.8506   -1.8262 C   0  0  0  0  0  0  0  0  0  0  0  0
   -2.5008   -0.5212   -2.5507 C   0  0  0  0  0  0  0  0  0  0  0  0
   -0.7781    0.4970    0.1029 C   0  0  0  0  0  0  0  0  0  0  0  0
   -0.3686    1.1229    1.2897 C   0  0  0  0  0  0  0  0  0  0  0  0
    0.9425    1.5618    1.4547 C   0  0  0  0  0  0  0  0  0  0  0  0
    1.8562    1.3670    0.4113 C   0  0  0  0  0  0  0  0  0  0  0  0
    1.4807    0.7170   -0.7691 C   0  0  0  0  0  0  0  0  0  0  0  0
    0.1651    0.2806   -0.9091 C   0  0  0  0  0  0  0  0  0  0  0  0
    3.1076    1.9649    0.5571 O   0  0  0  0  0  0  0  0  0  0  0  0
    4.2492    1.1523    0.4837 C   0  0  0  0  0  0  0  0  0  0  0  0
    5.2620    1.9364    0.9260 F   0  0  0  0  0  0  0  0  0  0  0  0
    4.1613    0.0460    1.2622 F   0  0  0  0  0  0  0  0  0  0  0  0
    4.5058    0.7747   -0.7944 F   0  0  0  0  0  0  0  0  0  0  0  0
   -4.5020   -1.1599    0.8892 H   0  0  0  0  0  0  0  0  0  0  0  0
   -0.3795   -2.0787   -0.2279 H   0  0  0  0  0  0  0  0  0  0  0  0
   -3.0239   -5.0821    0.9985 H   0  0  0  0  0  0  0  0  0  0  0  0
   -2.9458    1.6914    0.7759 H   0  0  0  0  0  0  0  0  0  0  0  0
   -3.9709    0.3289   -1.2412 H   0  0  0  0  0  0  0  0  0  0  0  0
   -3.0507    2.0685   -2.8093 H   0  0  0  0  0  0  0  0  0  0  0  0
   -2.9669    2.5729   -1.0749 H   0  0  0  0  0  0  0  0  0  0  0  0
   -1.4666    2.0179   -1.9292 H   0  0  0  0  0  0  0  0  0  0  0  0
   -3.3754   -0.6229   -3.2399 H   0  0  0  0  0  0  0  0  0  0  0  0
   -1.6447   -0.1310   -3.1537 H   0  0  0  0  0  0  0  0  0  0  0  0
   -2.2359   -1.5382   -2.1740 H   0  0  0  0  0  0  0  0  0  0  0  0
   -1.0891    1.2608    2.1134 H   0  0  0  0  0  0  0  0  0  0  0  0
    1.2606    2.0659    2.3790 H   0  0  0  0  0  0  0  0  0  0  0  0
    2.2160    0.5536   -1.5717 H   0  0  0  0  0  0  0  0  0  0  0  0
   -0.1257   -0.2379   -1.8359 H   0  0  0  0  0  0  0  0  0  0  0  0
  1  2  2  0  0  0  0
  1  6  1  0  0  0  0
  2  3  1  0  0  0  0
  2 23  1  0  0  0  0
  3  4  2  0  0  0  0
  3  7  1  0  0  0  0
  4  5  1  0  0  0  0
  4 24  1  0  0  0  0
  5  6  2  0  0  0  0
  6 25  1  0  0  0  0
  7  8  1  0  0  0  0
  7  9  1  0  0  0  0
  7 12  1  0  0  0  0
  8 26  1  0  0  0  0
  9 10  1  0  0  0  0
  9 11  1  0  0  0  0
  9 27  1  0  0  0  0
 10 28  1  0  0  0  0
 10 29  1  0  0  0  0
 10 30  1  0  0  0  0
 11 31  1  0  0  0  0
 11 32  1  0  0  0  0
 11 33  1  0  0  0  0
 12 13  2  0  0  0  0
 12 17  1  0  0  0  0
 13 14  1  0  0  0  0
 13 34  1  0  0  0  0
 14 15  2  0  0  0  0
 14 35  1  0  0  0  0
 15 16  1  0  0  0  0
 15 18  1  0  0  0  0
 16 17  2  0  0  0  0
 16 36  1  0  0  0  0
 17 37  1  0  0  0  0
 18 19  1  0  0  0  0
 19 20  1  0  0  0  0
 19 21  1  0  0  0  0
 19 22  1  0  0  0  0
M  END
