./068157-60-8.hin
 OpenBabel10071114553D

 27 28  0  0  0  0  0  0  0  0999 V2000
   -4.0548   -1.6867    0.0000 C   0  0  0  0  0  0  0  0  0  0  0  0
   -2.9864   -0.7537    0.0000 C   0  0  0  0  0  0  0  0  0  0  0  0
   -3.2919    0.6224    0.0000 C   0  0  0  0  0  0  0  0  0  0  0  0
   -4.6210    1.0402    0.0000 C   0  0  0  0  0  0  0  0  0  0  0  0
   -5.6644    0.1182    0.0000 C   0  0  0  0  0  0  0  0  0  0  0  0
   -5.3721   -1.2451    0.0000 C   0  0  0  0  0  0  0  0  0  0  0  0
   -1.6776   -1.2694   -0.0000 N   0  0  0  0  0  0  0  0  0  0  0  0
   -0.4908   -0.5205    0.0000 C   0  0  0  0  0  0  0  0  0  0  0  0
   -0.4839    0.7284    0.0000 O   0  0  0  0  0  0  0  0  0  0  0  0
    0.7104   -1.2653   -0.0000 N   0  0  0  0  0  0  0  0  0  0  0  0
    2.0060   -0.7407   -0.0000 C   0  0  0  0  0  0  0  0  0  0  0  0
    2.3077    0.6385   -0.0000 C   0  0  0  0  0  0  0  0  0  0  0  0
    3.6618    1.0260   -0.0000 C   0  0  0  0  0  0  0  0  0  0  0  0
    4.7067    0.1653   -0.0000 N   0  0  0  0  0  0  0  0  0  0  0  0
    4.3997   -1.1441   -0.0000 C   0  0  0  0  0  0  0  0  0  0  0  0
    3.0952   -1.6521   -0.0000 C   0  0  0  0  0  0  0  0  0  0  0  0
    3.9988    2.7052   -0.0000 Cl  0  0  0  0  0  0  0  0  0  0  0  0
   -3.8550   -2.7690    0.0000 H   0  0  0  0  0  0  0  0  0  0  0  0
   -2.4944    1.3833   -0.0000 H   0  0  0  0  0  0  0  0  0  0  0  0
   -4.8407    2.1190    0.0000 H   0  0  0  0  0  0  0  0  0  0  0  0
   -6.7089    0.4604    0.0000 H   0  0  0  0  0  0  0  0  0  0  0  0
   -6.1888   -1.9827    0.0000 H   0  0  0  0  0  0  0  0  0  0  0  0
   -1.6199   -2.2633   -0.0000 H   0  0  0  0  0  0  0  0  0  0  0  0
    0.6597   -2.2599   -0.0000 H   0  0  0  0  0  0  0  0  0  0  0  0
    1.5185    1.4076   -0.0000 H   0  0  0  0  0  0  0  0  0  0  0  0
    5.2669   -1.8306   -0.0000 H   0  0  0  0  0  0  0  0  0  0  0  0
    2.9382   -2.7388    0.0000 H   0  0  0  0  0  0  0  0  0  0  0  0
  1  2  2  0  0  0  0
  1  6  1  0  0  0  0
  1 18  1  0  0  0  0
  2  3  1  0  0  0  0
  2  7  1  0  0  0  0
  3  4  2  0  0  0  0
  3 19  1  0  0  0  0
  4  5  1  0  0  0  0
  4 20  1  0  0  0  0
  5  6  2  0  0  0  0
  5 21  1  0  0  0  0
  6 22  1  0  0  0  0
  7  8  1  0  0  0  0
  7 23  1  0  0  0  0
  8  9  2  0  0  0  0
  8 10  1  0  0  0  0
 10 11  1  0  0  0  0
 10 24  1  0  0  0  0
 11 12  2  0  0  0  0
 11 16  1  0  0  0  0
 12 13  1  0  0  0  0
 12 25  1  0  0  0  0
 13 14  2  0  0  0  0
 13 17  1  0  0  0  0
 14 15  1  0  0  0  0
 15 16  2  0  0  0  0
 15 26  1  0  0  0  0
 16 27  1  0  0  0  0
M  END
