./121552-61-2.hin
 OpenBabel10071114553D

 32 34  0  0  0  0  0  0  0  0999 V2000
   -3.5594   -0.8250   -0.1047 C   0  0  0  0  0  0  0  0  0  0  0  0
   -2.6140    0.0905    0.4168 C   0  0  0  0  0  0  0  0  0  0  0  0
   -2.9826    1.4458    0.5395 C   0  0  0  0  0  0  0  0  0  0  0  0
   -4.2453    1.8649    0.1259 C   0  0  0  0  0  0  0  0  0  0  0  0
   -5.1677    0.9573   -0.3895 C   0  0  0  0  0  0  0  0  0  0  0  0
   -4.8208   -0.3889   -0.4943 C   0  0  0  0  0  0  0  0  0  0  0  0
   -1.3736   -0.3992    0.8900 N   0  0  0  0  0  0  0  0  0  0  0  0
   -0.1339    0.1276    0.4532 C   0  0  0  0  0  0  0  0  0  0  0  0
   -0.0620    1.4479    0.0511 N   0  0  0  0  0  0  0  0  0  0  0  0
    1.1713    1.9243   -0.2411 C   0  0  0  0  0  0  0  0  0  0  0  0
    2.3260    1.1238   -0.1533 C   0  0  0  0  0  0  0  0  0  0  0  0
    2.1618   -0.2259    0.2375 C   0  0  0  0  0  0  0  0  0  0  0  0
    0.9506   -0.7417    0.5345 N   0  0  0  0  0  0  0  0  0  0  0  0
    1.3043    3.3509   -0.6698 C   0  0  0  0  0  0  0  0  0  0  0  0
    3.3700   -1.0801    0.2968 C   0  0  0  0  0  0  0  0  0  0  0  0
    3.4073   -2.3934   -0.4494 C   0  0  0  0  0  0  0  0  0  0  0  0
    3.3899   -2.3896    1.0467 C   0  0  0  0  0  0  0  0  0  0  0  0
   -3.3085   -1.8927   -0.1995 H   0  0  0  0  0  0  0  0  0  0  0  0
   -2.2868    2.1856    0.9636 H   0  0  0  0  0  0  0  0  0  0  0  0
   -4.5134    2.9287    0.2150 H   0  0  0  0  0  0  0  0  0  0  0  0
   -6.1626    1.2983   -0.7090 H   0  0  0  0  0  0  0  0  0  0  0  0
   -5.5466   -1.1145   -0.8911 H   0  0  0  0  0  0  0  0  0  0  0  0
   -1.3624   -1.3942    1.0148 H   0  0  0  0  0  0  0  0  0  0  0  0
    3.3172    1.5272   -0.3856 H   0  0  0  0  0  0  0  0  0  0  0  0
    0.9403    4.0340    0.1377 H   0  0  0  0  0  0  0  0  0  0  0  0
    2.3736    3.5885   -0.8876 H   0  0  0  0  0  0  0  0  0  0  0  0
    0.6977    3.5405   -1.5902 H   0  0  0  0  0  0  0  0  0  0  0  0
    4.2968   -0.4694    0.3113 H   0  0  0  0  0  0  0  0  0  0  0  0
    4.3372   -2.6638   -0.9810 H   0  0  0  0  0  0  0  0  0  0  0  0
    2.5052   -2.7225   -0.9953 H   0  0  0  0  0  0  0  0  0  0  0  0
    4.3114   -2.6539    1.5966 H   0  0  0  0  0  0  0  0  0  0  0  0
    2.4813   -2.7259    1.5774 H   0  0  0  0  0  0  0  0  0  0  0  0
  1  2  2  0  0  0  0
  1  6  1  0  0  0  0
  1 18  1  0  0  0  0
  2  3  1  0  0  0  0
  2  7  1  0  0  0  0
  3  4  2  0  0  0  0
  3 19  1  0  0  0  0
  4  5  1  0  0  0  0
  4 20  1  0  0  0  0
  5  6  2  0  0  0  0
  5 21  1  0  0  0  0
  6 22  1  0  0  0  0
  7  8  1  0  0  0  0
  7 23  1  0  0  0  0
  8  9  2  0  0  0  0
  8 13  1  0  0  0  0
  9 10  1  0  0  0  0
 10 11  2  0  0  0  0
 10 14  1  0  0  0  0
 11 12  1  0  0  0  0
 11 24  1  0  0  0  0
 12 13  2  0  0  0  0
 12 15  1  0  0  0  0
 14 25  1  0  0  0  0
 14 26  1  0  0  0  0
 14 27  1  0  0  0  0
 15 16  1  0  0  0  0
 15 17  1  0  0  0  0
 15 28  1  0  0  0  0
 16 17  1  0  0  0  0
 16 29  1  0  0  0  0
 16 30  1  0  0  0  0
 17 31  1  0  0  0  0
 17 32  1  0  0  0  0
M  END
