./150114-71-9.hin
 OpenBabel10071114553D

 16 16  0  0  0  0  0  0  0  0999 V2000
   -2.0564   -0.3185   -0.0000 C   0  0  0  0  0  0  0  0  0  0  0  0
   -2.1178    1.0828   -0.0000 C   0  0  0  0  0  0  0  0  0  0  0  0
   -0.9035    1.8093   -0.0000 C   0  0  0  0  0  0  0  0  0  0  0  0
    0.3235    1.0639   -0.0000 C   0  0  0  0  0  0  0  0  0  0  0  0
    0.2653   -0.3444    0.0000 C   0  0  0  0  0  0  0  0  0  0  0  0
   -0.9109   -1.0264    0.0000 N   0  0  0  0  0  0  0  0  0  0  0  0
   -0.9177    3.1784   -0.0000 N   0  0  0  0  0  0  0  0  0  0  0  0
   -3.5355   -1.1803   -0.0000 Cl  0  0  0  0  0  0  0  0  0  0  0  0
    1.7666    1.9533   -0.0000 Cl  0  0  0  0  0  0  0  0  0  0  0  0
    1.4582   -1.2495    0.0000 C   0  0  0  0  0  0  0  0  0  0  0  0
    2.6869   -0.6594    0.0000 O   0  0  0  0  0  0  0  0  0  0  0  0
    1.4683   -2.4835   -0.0000 O   0  0  0  0  0  0  0  0  0  0  0  0
   -3.0884    1.5981   -0.0000 H   0  0  0  0  0  0  0  0  0  0  0  0
   -1.7807    3.6586   -0.0000 H   0  0  0  0  0  0  0  0  0  0  0  0
   -0.0726    3.6915   -0.0000 H   0  0  0  0  0  0  0  0  0  0  0  0
    3.3677   -1.3549    0.0000 H   0  0  0  0  0  0  0  0  0  0  0  0
  1  2  2  0  0  0  0
  1  6  1  0  0  0  0
  1  8  1  0  0  0  0
  2  3  1  0  0  0  0
  2 13  1  0  0  0  0
  3  4  2  0  0  0  0
  3  7  1  0  0  0  0
  4  5  1  0  0  0  0
  4  9  1  0  0  0  0
  5  6  2  0  0  0  0
  5 10  1  0  0  0  0
  7 14  1  0  0  0  0
  7 15  1  0  0  0  0
 10 11  1  0  0  0  0
 10 12  2  0  0  0  0
 11 16  1  0  0  0  0
M  END
