./158063-66-2.hin
 OpenBabel10071114553D

 17 17  0  0  0  0  0  0  0  0999 V2000
    0.7707   -0.7585   -0.0000 C   0  0  0  0  0  0  0  0  0  0  0  0
    2.0324   -1.4220   -0.0000 C   0  0  0  0  0  0  0  0  0  0  0  0
    3.2170   -0.7957   -0.0000 N   0  0  0  0  0  0  0  0  0  0  0  0
    3.2026    0.5523   -0.0000 C   0  0  0  0  0  0  0  0  0  0  0  0
    2.0173    1.3028   -0.0000 C   0  0  0  0  0  0  0  0  0  0  0  0
    0.7782    0.6405   -0.0000 C   0  0  0  0  0  0  0  0  0  0  0  0
   -0.4248    1.5964   -0.0000 C   0  0  0  0  0  0  0  0  0  0  0  0
   -0.4174    2.4440   -1.0850 F   0  0  0  0  0  0  0  0  0  0  0  0
   -1.6839    1.0728   -0.0001 F   0  0  0  0  0  0  0  0  0  0  0  0
   -0.4174    2.4438    1.0852 F   0  0  0  0  0  0  0  0  0  0  0  0
   -0.3841   -1.6692   -0.0000 C   0  0  0  0  0  0  0  0  0  0  0  0
   -0.3360   -2.9064   -0.0000 O   0  0  0  0  0  0  0  0  0  0  0  0
   -1.6218   -1.1137   -0.0000 O   0  0  0  0  0  0  0  0  0  0  0  0
    2.0612   -2.5321    0.0000 H   0  0  0  0  0  0  0  0  0  0  0  0
    4.1906    1.0497    0.0000 H   0  0  0  0  0  0  0  0  0  0  0  0
    2.0517    2.4032   -0.0000 H   0  0  0  0  0  0  0  0  0  0  0  0
   -2.2933   -1.8179    0.0000 H   0  0  0  0  0  0  0  0  0  0  0  0
  1  2  2  0  0  0  0
  1  6  1  0  0  0  0
  1 11  1  0  0  0  0
  2  3  1  0  0  0  0
  2 14  1  0  0  0  0
  3  4  2  0  0  0  0
  4  5  1  0  0  0  0
  4 15  1  0  0  0  0
  5  6  2  0  0  0  0
  5 16  1  0  0  0  0
  6  7  1  0  0  0  0
  7  8  1  0  0  0  0
  7  9  1  0  0  0  0
  7 10  1  0  0  0  0
 11 12  2  0  0  0  0
 11 13  1  0  0  0  0
 13 17  1  0  0  0  0
M  END
