13
  Mrv0541 07151418403D          

 20 19  0  0  0  0            999 V2000
    1.7956    1.0410   -1.8739 C   0  0  0  0  0  0  0  0  0  0  0  0
    1.5011    0.2082   -0.6246 C   0  0  2  0  0  0  0  0  0  0  0  0
    0.0289   -0.2082   -0.6246 C   0  0  2  0  0  0  0  0  0  0  0  0
   -0.2656   -1.0410    0.6246 C   0  0  0  0  0  0  0  0  0  0  0  0
    1.7956    1.0410    0.6246 C   0  0  0  0  0  0  0  0  0  0  0  0
   -0.2656   -1.0410   -1.8739 C   0  0  0  0  0  0  0  0  0  0  0  0
    2.8444    1.3377   -1.8739 H   0  0  0  0  0  0  0  0  0  0  0  0
    1.1663    1.9310   -1.8739 H   0  0  0  0  0  0  0  0  0  0  0  0
    1.5858    0.4477   -2.7638 H   0  0  0  0  0  0  0  0  0  0  0  0
    2.1304   -0.6818   -0.6246 H   0  0  0  0  0  0  0  0  0  0  0  0
   -0.6004    0.6818   -0.6246 H   0  0  0  0  0  0  0  0  0  0  0  0
   -1.3144   -1.3377    0.6246 H   0  0  0  0  0  0  0  0  0  0  0  0
   -0.0558   -0.4477    1.5146 H   0  0  0  0  0  0  0  0  0  0  0  0
    0.3637   -1.9310    0.6246 H   0  0  0  0  0  0  0  0  0  0  0  0
    1.5858    0.4477    1.5146 H   0  0  0  0  0  0  0  0  0  0  0  0
    1.1663    1.9310    0.6246 H   0  0  0  0  0  0  0  0  0  0  0  0
    2.8444    1.3377    0.6246 H   0  0  0  0  0  0  0  0  0  0  0  0
   -1.3144   -1.3377   -1.8739 H   0  0  0  0  0  0  0  0  0  0  0  0
   -0.0558   -0.4477   -2.7638 H   0  0  0  0  0  0  0  0  0  0  0  0
    0.3637   -1.9310   -1.8739 H   0  0  0  0  0  0  0  0  0  0  0  0
  1  2  1  0  0  0  0
  2  3  1  0  0  0  0
  3  4  1  0  0  0  0
  2  5  1  0  0  0  0
  3  6  1  0  0  0  0
  1  7  1  0  0  0  0
  1  8  1  0  0  0  0
  1  9  1  0  0  0  0
  2 10  1  0  0  0  0
  3 11  1  0  0  0  0
  4 12  1  0  0  0  0
  4 13  1  0  0  0  0
  4 14  1  0  0  0  0
  5 15  1  0  0  0  0
  5 16  1  0  0  0  0
  5 17  1  0  0  0  0
  6 18  1  0  0  0  0
  6 19  1  0  0  0  0
  6 20  1  0  0  0  0
M  END