49
  Mrv0541 07151418403D          

 29 28  0  0  0  0            999 V2000
   -2.6350    2.7648    0.2082 C   0  0  0  0  0  0  0  0  0  0  0  0
   -1.7850    1.8031   -0.6246 C   0  0  1  0  0  0  0  0  0  0  0  0
   -0.5950    1.3223    0.2082 C   0  0  2  0  0  0  0  0  0  0  0  0
    0.2550    0.3606   -0.6246 C   0  0  1  0  0  0  0  0  0  0  0  0
    1.4450   -0.1202    0.2082 C   0  0  2  0  0  0  0  0  0  0  0  0
    2.2950   -1.0819   -0.6246 C   0  0  1  0  0  0  0  0  0  0  0  0
    3.4850   -1.5627    0.2082 C   0  0  0  0  0  0  0  0  0  0  0  0
   -2.6350    0.6010   -1.0410 C   0  0  0  0  0  0  0  0  0  0  0  0
    1.4450   -2.2840   -1.0410 C   0  0  0  0  0  0  0  0  0  0  0  0
   -3.4828    3.1073   -0.3851 H   0  0  0  0  0  0  0  0  0  0  0  0
   -2.9983    2.2510    1.0982 H   0  0  0  0  0  0  0  0  0  0  0  0
   -2.0294    3.6212    0.5049 H   0  0  0  0  0  0  0  0  0  0  0  0
   -1.4217    2.3170   -1.5146 H   0  0  0  0  0  0  0  0  0  0  0  0
   -0.9583    0.8085    1.0982 H   0  0  0  0  0  0  0  0  0  0  0  0
    0.0106    2.1787    0.5049 H   0  0  0  0  0  0  0  0  0  0  0  0
   -0.3506   -0.4958   -0.9213 H   0  0  0  0  0  0  0  0  0  0  0  0
    0.6183    0.8745   -1.5146 H   0  0  0  0  0  0  0  0  0  0  0  0
    1.0817   -0.6340    1.0982 H   0  0  0  0  0  0  0  0  0  0  0  0
    2.0506    0.7362    0.5049 H   0  0  0  0  0  0  0  0  0  0  0  0
    2.6583   -0.5680   -1.5146 H   0  0  0  0  0  0  0  0  0  0  0  0
    4.0906   -2.2478   -0.3851 H   0  0  0  0  0  0  0  0  0  0  0  0
    3.1217   -2.0765    1.0982 H   0  0  0  0  0  0  0  0  0  0  0  0
    4.0906   -0.7063    0.5049 H   0  0  0  0  0  0  0  0  0  0  0  0
   -2.0294   -0.0841   -1.6344 H   0  0  0  0  0  0  0  0  0  0  0  0
   -3.4828    0.9436   -1.6344 H   0  0  0  0  0  0  0  0  0  0  0  0
   -2.9983    0.0872   -0.1511 H   0  0  0  0  0  0  0  0  0  0  0  0
    2.0506   -2.9691   -1.6344 H   0  0  0  0  0  0  0  0  0  0  0  0
    0.5972   -1.9414   -1.6344 H   0  0  0  0  0  0  0  0  0  0  0  0
    1.0817   -2.7978   -0.1511 H   0  0  0  0  0  0  0  0  0  0  0  0
  1  2  1  0  0  0  0
  2  3  1  0  0  0  0
  3  4  1  0  0  0  0
  4  5  1  0  0  0  0
  5  6  1  0  0  0  0
  6  7  1  0  0  0  0
  2  8  1  0  0  0  0
  6  9  1  0  0  0  0
  1 10  1  0  0  0  0
  1 11  1  0  0  0  0
  1 12  1  0  0  0  0
  2 13  1  0  0  0  0
  3 14  1  0  0  0  0
  3 15  1  0  0  0  0
  4 16  1  0  0  0  0
  4 17  1  0  0  0  0
  5 18  1  0  0  0  0
  5 19  1  0  0  0  0
  6 20  1  0  0  0  0
  7 21  1  0  0  0  0
  7 22  1  0  0  0  0
  7 23  1  0  0  0  0
  8 24  1  0  0  0  0
  8 25  1  0  0  0  0
  8 26  1  0  0  0  0
  9 27  1  0  0  0  0
  9 28  1  0  0  0  0
  9 29  1  0  0  0  0
M  END