57
  Mrv0541 07151418403D          

 29 28  0  0  0  0            999 V2000
    2.0153   -2.7819   -1.3465 C   0  0  0  0  0  0  0  0  0  0  0  0
    2.2893   -1.4463   -0.5588 C   0  0  2  0  0  0  0  0  0  0  0  0
    1.0006   -0.5227   -0.6297 C   0  0  2  0  0  0  0  0  0  0  0  0
    1.0549    0.8874    0.0744 C   0  0  1  0  0  0  0  0  0  0  0  0
   -0.2141    1.7566   -0.1812 C   0  0  2  0  0  0  0  0  0  0  0  0
   -0.1116    3.1939    0.4080 C   0  0  0  0  0  0  0  0  0  0  0  0
    3.5031   -0.7120   -1.1993 C   0  0  0  0  0  0  0  0  0  0  0  0
    2.6710   -1.9285    0.8947 C   0  0  0  0  0  0  0  0  0  0  0  0
    1.3239    0.8167    1.6118 C   0  0  0  0  0  0  0  0  0  0  0  0
    2.8762   -3.4464   -1.2928 H   0  0  0  0  0  0  0  0  0  0  0  0
    1.1725   -3.3198   -0.9209 H   0  0  0  0  0  0  0  0  0  0  0  0
    1.8106   -2.5990   -2.3983 H   0  0  0  0  0  0  0  0  0  0  0  0
    0.1286   -1.0632   -0.2650 H   0  0  0  0  0  0  0  0  0  0  0  0
    0.7894   -0.3476   -1.6869 H   0  0  0  0  0  0  0  0  0  0  0  0
    1.8699    1.4363   -0.3800 H   0  0  0  0  0  0  0  0  0  0  0  0
   -1.0962    1.2564    0.2127 H   0  0  0  0  0  0  0  0  0  0  0  0
   -0.3678    1.8658   -1.2589 H   0  0  0  0  0  0  0  0  0  0  0  0
   -0.9703    3.8048    0.1391 H   0  0  0  0  0  0  0  0  0  0  0  0
   -0.0871    3.2062    1.4877 H   0  0  0  0  0  0  0  0  0  0  0  0
    0.7896    3.6806    0.0381 H   0  0  0  0  0  0  0  0  0  0  0  0
    3.7175    0.2247   -0.6861 H   0  0  0  0  0  0  0  0  0  0  0  0
    3.3074   -0.4712   -2.2427 H   0  0  0  0  0  0  0  0  0  0  0  0
    4.4060   -1.3221   -1.1650 H   0  0  0  0  0  0  0  0  0  0  0  0
    3.2589   -1.2310    1.4839 H   0  0  0  0  0  0  0  0  0  0  0  0
    1.7890   -2.2554    1.4403 H   0  0  0  0  0  0  0  0  0  0  0  0
    3.2751   -2.8238    0.8578 H   0  0  0  0  0  0  0  0  0  0  0  0
    1.2216    1.7087    2.1637 H   0  0  0  0  0  0  0  0  0  0  0  0
    0.6393    0.1282    2.0839 H   0  0  0  0  0  0  0  0  0  0  0  0
    2.3443    0.5738    1.8442 H   0  0  0  0  0  0  0  0  0  0  0  0
  1  2  1  0  0  0  0
  2  3  1  0  0  0  0
  3  4  1  0  0  0  0
  4  5  1  0  0  0  0
  5  6  1  0  0  0  0
  2  7  1  0  0  0  0
  2  8  1  0  0  0  0
  4  9  1  0  0  0  0
  1 10  1  0  0  0  0
  1 11  1  0  0  0  0
  1 12  1  0  0  0  0
  3 13  1  0  0  0  0
  3 14  1  0  0  0  0
  4 15  1  0  0  0  0
  5 16  1  0  0  0  0
  5 17  1  0  0  0  0
  6 18  1  0  0  0  0
  6 19  1  0  0  0  0
  6 20  1  0  0  0  0
  7 21  1  0  0  0  0
  7 22  1  0  0  0  0
  7 23  1  0  0  0  0
  8 24  1  0  0  0  0
  8 25  1  0  0  0  0
  8 26  1  0  0  0  0
  9 27  1  0  0  0  0
  9 28  1  0  0  0  0
  9 29  1  0  0  0  0
M  END