58
  Mrv0541 07151418403D          

 29 28  0  0  0  0            999 V2000
    3.7193   -1.1205   -1.3036 C   0  0  0  0  0  0  0  0  0  0  0  0
    2.3858   -1.2087   -0.5587 C   0  0  2  0  0  0  0  0  0  0  0  0
    1.6103    0.0970   -0.7449 C   0  0  2  0  0  0  0  0  0  0  0  0
    0.2768    0.0088    0.0000 C   0  0  1  0  0  0  0  0  0  0  0  0
   -0.4987    1.3145   -0.1862 C   0  0  1  0  0  0  0  0  0  0  0  0
   -1.8322    1.2264    0.5587 C   0  0  0  0  0  0  0  0  0  0  0  0
    2.6480   -1.4381    0.9311 C   0  0  0  0  0  0  0  0  0  0  0  0
    1.5655   -2.3732   -1.1174 C   0  0  0  0  0  0  0  0  0  0  0  0
    0.3216    2.4790    0.3725 C   0  0  0  0  0  0  0  0  0  0  0  0
    4.2718   -2.0508   -1.1709 H   0  0  0  0  0  0  0  0  0  0  0  0
    3.5325   -0.9571   -2.3649 H   0  0  0  0  0  0  0  0  0  0  0  0
    4.3037   -0.2910   -0.9056 H   0  0  0  0  0  0  0  0  0  0  0  0
    1.4235    0.2604   -1.8063 H   0  0  0  0  0  0  0  0  0  0  0  0
    2.1947    0.9266   -0.3469 H   0  0  0  0  0  0  0  0  0  0  0  0
   -0.3076   -0.8207   -0.3980 H   0  0  0  0  0  0  0  0  0  0  0  0
    0.4636   -0.1546    1.0614 H   0  0  0  0  0  0  0  0  0  0  0  0
   -0.6855    1.4780   -1.2476 H   0  0  0  0  0  0  0  0  0  0  0  0
   -2.3847    2.1566    0.4260 H   0  0  0  0  0  0  0  0  0  0  0  0
   -2.4166    0.3968    0.1607 H   0  0  0  0  0  0  0  0  0  0  0  0
   -1.6454    1.0630    1.6200 H   0  0  0  0  0  0  0  0  0  0  0  0
    1.6980   -1.5009    1.4618 H   0  0  0  0  0  0  0  0  0  0  0  0
    3.2005   -2.3683    1.0638 H   0  0  0  0  0  0  0  0  0  0  0  0
    3.2324   -0.6085    1.3291 H   0  0  0  0  0  0  0  0  0  0  0  0
    0.6155   -2.4360   -0.5867 H   0  0  0  0  0  0  0  0  0  0  0  0
    1.3787   -2.2097   -2.1787 H   0  0  0  0  0  0  0  0  0  0  0  0
    2.1180   -3.3034   -0.9847 H   0  0  0  0  0  0  0  0  0  0  0  0
   -0.2309    3.4092    0.2398 H   0  0  0  0  0  0  0  0  0  0  0  0
    0.5084    2.3156    1.4338 H   0  0  0  0  0  0  0  0  0  0  0  0
    1.2716    2.5418   -0.1582 H   0  0  0  0  0  0  0  0  0  0  0  0
  1  2  1  0  0  0  0
  2  3  1  0  0  0  0
  3  4  1  0  0  0  0
  4  5  1  0  0  0  0
  5  6  1  0  0  0  0
  2  7  1  0  0  0  0
  2  8  1  0  0  0  0
  5  9  1  0  0  0  0
  1 10  1  0  0  0  0
  1 11  1  0  0  0  0
  1 12  1  0  0  0  0
  3 13  1  0  0  0  0
  3 14  1  0  0  0  0
  4 15  1  0  0  0  0
  4 16  1  0  0  0  0
  5 17  1  0  0  0  0
  6 18  1  0  0  0  0
  6 19  1  0  0  0  0
  6 20  1  0  0  0  0
  7 21  1  0  0  0  0
  7 22  1  0  0  0  0
  7 23  1  0  0  0  0
  8 24  1  0  0  0  0
  8 25  1  0  0  0  0
  8 26  1  0  0  0  0
  9 27  1  0  0  0  0
  9 28  1  0  0  0  0
  9 29  1  0  0  0  0
M  END