68
  Mrv0541 07151418403D          

 29 28  0  0  0  0            999 V2000
    2.9459    0.9367   -0.1816 C   0  0  0  0  0  0  0  0  0  0  0  0
    1.6823    0.0843   -0.3148 C   0  0  1  0  0  0  0  0  0  0  0  0
    0.4478    0.9781   -0.1816 C   0  0  2  0  0  0  0  0  0  0  0  0
   -0.8158    0.1257   -0.3148 C   0  0  2  0  0  0  0  0  0  0  0  0
   -2.0504    1.0196   -0.1816 C   0  0  0  0  0  0  0  0  0  0  0  0
    1.6710   -0.6004   -1.6830 C   0  0  0  0  0  0  0  0  0  0  0  0
    1.6647   -0.9772    0.7869 C   0  0  0  0  0  0  0  0  0  0  0  0
    0.4654    2.0396   -1.2833 C   0  0  0  0  0  0  0  0  0  0  0  0
    0.4591    1.6629    1.1866 C   0  0  0  0  0  0  0  0  0  0  0  0
    3.8254    0.2999   -0.2765 H   0  0  0  0  0  0  0  0  0  0  0  0
    2.9540    1.4245    0.7932 H   0  0  0  0  0  0  0  0  0  0  0  0
    2.9584    1.6929   -0.9664 H   0  0  0  0  0  0  0  0  0  0  0  0
   -0.8283   -0.6305    0.4701 H   0  0  0  0  0  0  0  0  0  0  0  0
   -0.8239   -0.3621   -1.2895 H   0  0  0  0  0  0  0  0  0  0  0  0
   -2.9506    0.4123   -0.2765 H   0  0  0  0  0  0  0  0  0  0  0  0
   -2.0423    1.5074    0.7932 H   0  0  0  0  0  0  0  0  0  0  0  0
   -2.0378    1.7758   -0.9664 H   0  0  0  0  0  0  0  0  0  0  0  0
    0.7708   -1.2077   -1.7779 H   0  0  0  0  0  0  0  0  0  0  0  0
    1.6835    0.1558   -2.4678 H   0  0  0  0  0  0  0  0  0  0  0  0
    2.5505   -1.2372   -1.7779 H   0  0  0  0  0  0  0  0  0  0  0  0
    0.7646   -1.5845    0.6920 H   0  0  0  0  0  0  0  0  0  0  0  0
    1.6728   -0.4894    1.7617 H   0  0  0  0  0  0  0  0  0  0  0  0
    2.5443   -1.6140    0.6920 H   0  0  0  0  0  0  0  0  0  0  0  0
   -0.4142    2.6764   -1.1884 H   0  0  0  0  0  0  0  0  0  0  0  0
    0.4573    1.5518   -2.2580 H   0  0  0  0  0  0  0  0  0  0  0  0
    1.3655    2.6469   -1.1884 H   0  0  0  0  0  0  0  0  0  0  0  0
   -0.4204    2.2997    1.2815 H   0  0  0  0  0  0  0  0  0  0  0  0
    0.4466    0.9066    1.9715 H   0  0  0  0  0  0  0  0  0  0  0  0
    1.3593    2.2701    1.2815 H   0  0  0  0  0  0  0  0  0  0  0  0
  1  2  1  0  0  0  0
  2  3  1  0  0  0  0
  3  4  1  0  0  0  0
  4  5  1  0  0  0  0
  2  6  1  0  0  0  0
  2  7  1  0  0  0  0
  3  8  1  0  0  0  0
  3  9  1  0  0  0  0
  1 10  1  0  0  0  0
  1 11  1  0  0  0  0
  1 12  1  0  0  0  0
  4 13  1  0  0  0  0
  4 14  1  0  0  0  0
  5 15  1  0  0  0  0
  5 16  1  0  0  0  0
  5 17  1  0  0  0  0
  6 18  1  0  0  0  0
  6 19  1  0  0  0  0
  6 20  1  0  0  0  0
  7 21  1  0  0  0  0
  7 22  1  0  0  0  0
  7 23  1  0  0  0  0
  8 24  1  0  0  0  0
  8 25  1  0  0  0  0
  8 26  1  0  0  0  0
  9 27  1  0  0  0  0
  9 28  1  0  0  0  0
  9 29  1  0  0  0  0
M  END