71
  Mrv0541 07151418403D          

 29 28  0  0  0  0            999 V2000
    2.2577   -0.6603   -1.7313 C   0  0  0  0  0  0  0  0  0  0  0  0
    1.6124   -0.0779   -0.4722 C   0  0  1  0  0  0  0  0  0  0  0  0
    0.1789    0.3543   -0.7869 C   0  0  1  0  0  0  0  0  0  0  0  0
   -0.4663    0.9367    0.4722 C   0  0  2  0  0  0  0  0  0  0  0  0
   -1.8999    1.3689    0.1574 C   0  0  0  0  0  0  0  0  0  0  0  0
    1.5948   -1.1394    0.6296 C   0  0  0  0  0  0  0  0  0  0  0  0
    0.1965    1.4158   -1.8887 C   0  0  0  0  0  0  0  0  0  0  0  0
   -0.6270   -0.8575   -1.2591 C   0  0  0  0  0  0  0  0  0  0  0  0
    0.3396    2.1485    0.9443 C   0  0  0  0  0  0  0  0  0  0  0  0
    3.2789   -0.9682   -1.5070 H   0  0  0  0  0  0  0  0  0  0  0  0
    1.6835   -1.5236   -2.0677 H   0  0  0  0  0  0  0  0  0  0  0  0
    2.2702    0.0959   -2.5162 H   0  0  0  0  0  0  0  0  0  0  0  0
    2.1866    0.7854   -0.1358 H   0  0  0  0  0  0  0  0  0  0  0  0
   -0.4789    0.1805    1.2571 H   0  0  0  0  0  0  0  0  0  0  0  0
   -2.3595    1.7838    1.0544 H   0  0  0  0  0  0  0  0  0  0  0  0
   -2.4740    0.5056   -0.1790 H   0  0  0  0  0  0  0  0  0  0  0  0
   -1.8873    2.1251   -0.6275 H   0  0  0  0  0  0  0  0  0  0  0  0
    1.1352   -0.7245    1.5266 H   0  0  0  0  0  0  0  0  0  0  0  0
    1.0207   -2.0027    0.2932 H   0  0  0  0  0  0  0  0  0  0  0  0
    2.6161   -1.4473    0.8538 H   0  0  0  0  0  0  0  0  0  0  0  0
   -0.8248    1.7236   -2.1129 H   0  0  0  0  0  0  0  0  0  0  0  0
    0.6562    1.0008   -2.7857 H   0  0  0  0  0  0  0  0  0  0  0  0
    0.7707    2.2791   -1.5523 H   0  0  0  0  0  0  0  0  0  0  0  0
   -1.6483   -0.5496   -1.4834 H   0  0  0  0  0  0  0  0  0  0  0  0
   -0.6396   -1.6138   -0.4742 H   0  0  0  0  0  0  0  0  0  0  0  0
   -0.1674   -1.2725   -2.1561 H   0  0  0  0  0  0  0  0  0  0  0  0
   -0.1200    2.5634    1.8414 H   0  0  0  0  0  0  0  0  0  0  0  0
    0.3522    2.9047    0.1594 H   0  0  0  0  0  0  0  0  0  0  0  0
    1.3609    1.8406    1.1686 H   0  0  0  0  0  0  0  0  0  0  0  0
  1  2  1  0  0  0  0
  2  3  1  0  0  0  0
  3  4  1  0  0  0  0
  4  5  1  0  0  0  0
  2  6  1  0  0  0  0
  3  7  1  0  0  0  0
  3  8  1  0  0  0  0
  4  9  1  0  0  0  0
  1 10  1  0  0  0  0
  1 11  1  0  0  0  0
  1 12  1  0  0  0  0
  2 13  1  0  0  0  0
  4 14  1  0  0  0  0
  5 15  1  0  0  0  0
  5 16  1  0  0  0  0
  5 17  1  0  0  0  0
  6 18  1  0  0  0  0
  6 19  1  0  0  0  0
  6 20  1  0  0  0  0
  7 21  1  0  0  0  0
  7 22  1  0  0  0  0
  7 23  1  0  0  0  0
  8 24  1  0  0  0  0
  8 25  1  0  0  0  0
  8 26  1  0  0  0  0
  9 27  1  0  0  0  0
  9 28  1  0  0  0  0
  9 29  1  0  0  0  0
M  END