85
  Mrv0541 07151418403D          

 32 31  0  0  0  0            999 V2000
    4.1650   -0.6010   -1.0410 C   0  0  0  0  0  0  0  0  0  0  0  0
    3.3150   -1.8031   -0.6246 C   0  0  2  0  0  0  0  0  0  0  0  0
    2.1250   -1.3223    0.2082 C   0  0  2  0  0  0  0  0  0  0  0  0
    1.2750   -2.5244    0.6246 C   0  0  1  0  0  0  0  0  0  0  0  0
    0.0850   -2.0435    1.4574 C   0  0  2  0  0  0  0  0  0  0  0  0
   -0.7650   -3.2456    1.8739 C   0  0  2  0  0  0  0  0  0  0  0  0
   -1.9550   -2.7648    2.7067 C   0  0  2  0  0  0  0  0  0  0  0  0
   -2.8050   -3.9669    3.1231 C   0  0  0  0  0  0  0  0  0  0  0  0
    4.1650   -2.7648    0.2082 C   0  0  0  0  0  0  0  0  0  0  0  0
    0.0850   -4.2073    2.7067 C   0  0  0  0  0  0  0  0  0  0  0  0
    5.0128   -0.9436   -1.6344 H   0  0  0  0  0  0  0  0  0  0  0  0
    3.5594    0.0841   -1.6344 H   0  0  0  0  0  0  0  0  0  0  0  0
    4.5283   -0.0872   -0.1511 H   0  0  0  0  0  0  0  0  0  0  0  0
    2.9517   -2.3170   -1.5146 H   0  0  0  0  0  0  0  0  0  0  0  0
    1.5194   -0.6372   -0.3851 H   0  0  0  0  0  0  0  0  0  0  0  0
    2.4883   -0.8085    1.0982 H   0  0  0  0  0  0  0  0  0  0  0  0
    0.9117   -3.0382   -0.2654 H   0  0  0  0  0  0  0  0  0  0  0  0
    1.8806   -3.2095    1.2179 H   0  0  0  0  0  0  0  0  0  0  0  0
   -0.5206   -1.3584    0.8641 H   0  0  0  0  0  0  0  0  0  0  0  0
    0.4483   -1.5297    2.3474 H   0  0  0  0  0  0  0  0  0  0  0  0
   -1.1283   -3.7595    0.9839 H   0  0  0  0  0  0  0  0  0  0  0  0
   -2.5606   -2.0797    2.1134 H   0  0  0  0  0  0  0  0  0  0  0  0
   -1.5917   -2.2510    3.5967 H   0  0  0  0  0  0  0  0  0  0  0  0
   -3.6528   -3.6243    3.7164 H   0  0  0  0  0  0  0  0  0  0  0  0
   -3.1683   -4.4807    2.2331 H   0  0  0  0  0  0  0  0  0  0  0  0
   -2.1994   -4.6520    3.7164 H   0  0  0  0  0  0  0  0  0  0  0  0
    3.5594   -3.6212    0.5049 H   0  0  0  0  0  0  0  0  0  0  0  0
    4.5283   -2.2510    1.0982 H   0  0  0  0  0  0  0  0  0  0  0  0
    5.0128   -3.1073   -0.3851 H   0  0  0  0  0  0  0  0  0  0  0  0
   -0.5206   -5.0637    3.0033 H   0  0  0  0  0  0  0  0  0  0  0  0
    0.4483   -3.6935    3.5967 H   0  0  0  0  0  0  0  0  0  0  0  0
    0.9328   -4.5498    2.1134 H   0  0  0  0  0  0  0  0  0  0  0  0
  1  2  1  0  0  0  0
  2  3  1  0  0  0  0
  3  4  1  0  0  0  0
  4  5  1  0  0  0  0
  5  6  1  0  0  0  0
  6  7  1  0  0  0  0
  7  8  1  0  0  0  0
  2  9  1  0  0  0  0
  6 10  1  0  0  0  0
  1 11  1  0  0  0  0
  1 12  1  0  0  0  0
  1 13  1  0  0  0  0
  2 14  1  0  0  0  0
  3 15  1  0  0  0  0
  3 16  1  0  0  0  0
  4 17  1  0  0  0  0
  4 18  1  0  0  0  0
  5 19  1  0  0  0  0
  5 20  1  0  0  0  0
  6 21  1  0  0  0  0
  7 22  1  0  0  0  0
  7 23  1  0  0  0  0
  8 24  1  0  0  0  0
  8 25  1  0  0  0  0
  8 26  1  0  0  0  0
  9 27  1  0  0  0  0
  9 28  1  0  0  0  0
  9 29  1  0  0  0  0
 10 30  1  0  0  0  0
 10 31  1  0  0  0  0
 10 32  1  0  0  0  0
M  END