95
  Mrv0541 07151418403D          

 32 31  0  0  0  0            999 V2000
    1.9769   -2.5494    1.2895 C   0  0  0  0  0  0  0  0  0  0  0  0
    1.8782   -1.5549    0.1310 C   0  0  1  0  0  0  0  0  0  0  0  0
    0.9077   -0.4324    0.5037 C   0  0  2  0  0  0  0  0  0  0  0  0
    0.8090    0.5621   -0.6548 C   0  0  2  0  0  0  0  0  0  0  0  0
   -0.1616    1.6846   -0.2820 C   0  0  1  0  0  0  0  0  0  0  0  0
   -0.2603    2.6791   -1.4405 C   0  0  2  0  0  0  0  0  0  0  0  0
   -1.2308    3.8016   -1.0678 C   0  0  0  0  0  0  0  0  0  0  0  0
    3.2600   -0.9617   -0.1511 C   0  0  0  0  0  0  0  0  0  0  0  0
    1.3682   -2.2762   -1.1183 C   0  0  0  0  0  0  0  0  0  0  0  0
    1.4177    0.2888    1.7530 C   0  0  0  0  0  0  0  0  0  0  0  0
    2.6684   -3.3491    1.0239 H   0  0  0  0  0  0  0  0  0  0  0  0
    0.9925   -2.9721    1.4904 H   0  0  0  0  0  0  0  0  0  0  0  0
    2.3403   -2.0356    2.1794 H   0  0  0  0  0  0  0  0  0  0  0  0
   -0.0768   -0.8551    0.7046 H   0  0  0  0  0  0  0  0  0  0  0  0
    0.4456    0.0483   -1.5448 H   0  0  0  0  0  0  0  0  0  0  0  0
    1.7934    0.9847   -0.8557 H   0  0  0  0  0  0  0  0  0  0  0  0
   -1.1460    1.2620   -0.0811 H   0  0  0  0  0  0  0  0  0  0  0  0
    0.2018    2.1984    0.6080 H   0  0  0  0  0  0  0  0  0  0  0  0
   -0.6236    2.1653   -2.3305 H   0  0  0  0  0  0  0  0  0  0  0  0
    0.7241    3.1017   -1.6414 H   0  0  0  0  0  0  0  0  0  0  0  0
   -1.3012    4.5101   -1.8931 H   0  0  0  0  0  0  0  0  0  0  0  0
   -2.2153    3.3790   -0.8668 H   0  0  0  0  0  0  0  0  0  0  0  0
   -0.8675    4.3154   -0.1778 H   0  0  0  0  0  0  0  0  0  0  0  0
    3.1897   -0.2532   -0.9764 H   0  0  0  0  0  0  0  0  0  0  0  0
    3.6234   -0.4478    0.7389 H   0  0  0  0  0  0  0  0  0  0  0  0
    3.9515   -1.7614   -0.4166 H   0  0  0  0  0  0  0  0  0  0  0  0
    1.2979   -1.5677   -1.9436 H   0  0  0  0  0  0  0  0  0  0  0  0
    0.3838   -2.6988   -0.9174 H   0  0  0  0  0  0  0  0  0  0  0  0
    2.0596   -3.0759   -1.3838 H   0  0  0  0  0  0  0  0  0  0  0  0
    0.7262    1.0885    2.0185 H   0  0  0  0  0  0  0  0  0  0  0  0
    1.4880   -0.4197    2.5783 H   0  0  0  0  0  0  0  0  0  0  0  0
    2.4021    0.7115    1.5520 H   0  0  0  0  0  0  0  0  0  0  0  0
  1  2  1  0  0  0  0
  2  3  1  0  0  0  0
  3  4  1  0  0  0  0
  4  5  1  0  0  0  0
  5  6  1  0  0  0  0
  6  7  1  0  0  0  0
  2  8  1  0  0  0  0
  2  9  1  0  0  0  0
  3 10  1  0  0  0  0
  1 11  1  0  0  0  0
  1 12  1  0  0  0  0
  1 13  1  0  0  0  0
  3 14  1  0  0  0  0
  4 15  1  0  0  0  0
  4 16  1  0  0  0  0
  5 17  1  0  0  0  0
  5 18  1  0  0  0  0
  6 19  1  0  0  0  0
  6 20  1  0  0  0  0
  7 21  1  0  0  0  0
  7 22  1  0  0  0  0
  7 23  1  0  0  0  0
  8 24  1  0  0  0  0
  8 25  1  0  0  0  0
  8 26  1  0  0  0  0
  9 27  1  0  0  0  0
  9 28  1  0  0  0  0
  9 29  1  0  0  0  0
 10 30  1  0  0  0  0
 10 31  1  0  0  0  0
 10 32  1  0  0  0  0
M  END