96
  Mrv0541 07151418403D          

 32 31  0  0  0  0            999 V2000
    1.9404   -2.6241    1.3474 C   0  0  0  0  0  0  0  0  0  0  0  0
    1.9381   -1.6509    0.1320 C   0  0  1  0  0  0  0  0  0  0  0  0
    0.9744   -0.4184    0.4535 C   0  0  1  0  0  0  0  0  0  0  0  0
    0.8273    0.6903   -0.6498 C   0  0  1  0  0  0  0  0  0  0  0  0
   -0.2221    1.7684   -0.2682 C   0  0  1  0  0  0  0  0  0  0  0  0
   -0.4213    2.7834   -1.4325 C   0  0  2  0  0  0  0  0  0  0  0  0
   -1.3782    3.8992   -1.0646 C   0  0  0  0  0  0  0  0  0  0  0  0
    3.4666   -1.3046   -0.0413 C   0  0  0  0  0  0  0  0  0  0  0  0
    1.4128   -2.4030   -1.1468 C   0  0  0  0  0  0  0  0  0  0  0  0
    2.1556    1.4178   -1.0584 C   0  0  0  0  0  0  0  0  0  0  0  0
    2.6044   -3.4736    1.1642 H   0  0  0  0  0  0  0  0  0  0  0  0
    0.9612   -3.0393    1.5636 H   0  0  0  0  0  0  0  0  0  0  0  0
    2.2987   -2.1346    2.2572 H   0  0  0  0  0  0  0  0  0  0  0  0
   -0.0119   -0.8119    0.6835 H   0  0  0  0  0  0  0  0  0  0  0  0
    1.2637    0.0544    1.3905 H   0  0  0  0  0  0  0  0  0  0  0  0
    0.3928    0.2356   -1.5343 H   0  0  0  0  0  0  0  0  0  0  0  0
   -1.1810    1.2886   -0.0495 H   0  0  0  0  0  0  0  0  0  0  0  0
    0.0931    2.2699    0.6489 H   0  0  0  0  0  0  0  0  0  0  0  0
   -0.7265    2.2683   -2.3572 H   0  0  0  0  0  0  0  0  0  0  0  0
    0.4569    3.3792   -1.6713 H   0  0  0  0  0  0  0  0  0  0  0  0
   -1.4214    4.6045   -1.8966 H   0  0  0  0  0  0  0  0  0  0  0  0
   -2.3573    3.4720   -0.8563 H   0  0  0  0  0  0  0  0  0  0  0  0
   -0.9686    4.3980   -0.1797 H   0  0  0  0  0  0  0  0  0  0  0  0
    3.7515   -0.9522   -1.0162 H   0  0  0  0  0  0  0  0  0  0  0  0
    3.8011   -0.5778    0.6901 H   0  0  0  0  0  0  0  0  0  0  0  0
    4.1321   -2.1562    0.0867 H   0  0  0  0  0  0  0  0  0  0  0  0
    1.4026   -1.7757   -2.0321 H   0  0  0  0  0  0  0  0  0  0  0  0
    0.4030   -2.7655   -0.9962 H   0  0  0  0  0  0  0  0  0  0  0  0
    2.0439   -3.2596   -1.3754 H   0  0  0  0  0  0  0  0  0  0  0  0
    2.0910    2.2658   -1.7043 H   0  0  0  0  0  0  0  0  0  0  0  0
    2.6898    1.7710   -0.1831 H   0  0  0  0  0  0  0  0  0  0  0  0
    2.8015    0.8229   -1.6764 H   0  0  0  0  0  0  0  0  0  0  0  0
  1  2  1  0  0  0  0
  2  3  1  0  0  0  0
  3  4  1  0  0  0  0
  4  5  1  0  0  0  0
  5  6  1  0  0  0  0
  6  7  1  0  0  0  0
  2  8  1  0  0  0  0
  2  9  1  0  0  0  0
  4 10  1  0  0  0  0
  1 11  1  0  0  0  0
  1 12  1  0  0  0  0
  1 13  1  0  0  0  0
  3 14  1  0  0  0  0
  3 15  1  0  0  0  0
  4 16  1  0  0  0  0
  5 17  1  0  0  0  0
  5 18  1  0  0  0  0
  6 19  1  0  0  0  0
  6 20  1  0  0  0  0
  7 21  1  0  0  0  0
  7 22  1  0  0  0  0
  7 23  1  0  0  0  0
  8 24  1  0  0  0  0
  8 25  1  0  0  0  0
  8 26  1  0  0  0  0
  9 27  1  0  0  0  0
  9 28  1  0  0  0  0
  9 29  1  0  0  0  0
 10 30  1  0  0  0  0
 10 31  1  0  0  0  0
 10 32  1  0  0  0  0
M  END