113
  Mrv0541 07151418403D          

 32 31  0  0  0  0            999 V2000
    2.7911    1.1648   -3.2209 C   0  0  0  0  0  0  0  0  0  0  0  0
    1.3849    0.7600   -2.7740 C   0  0  2  0  0  0  0  0  0  0  0  0
    1.1528    1.2268   -1.3355 C   0  0  2  0  0  0  0  0  0  0  0  0
   -0.2533    0.8220   -0.8886 C   0  0  1  0  0  0  0  0  0  0  0  0
   -0.4854    1.2888    0.5498 C   0  0  1  0  0  0  0  0  0  0  0  0
   -1.8916    0.8840    0.9968 C   0  0  2  0  0  0  0  0  0  0  0  0
   -2.9263    1.5344    0.0763 C   0  0  0  0  0  0  0  0  0  0  0  0
    0.5493    0.6384    1.4703 C   0  0  1  0  0  0  0  0  0  0  0  0
    0.3172    1.1052    2.9088 C   0  0  0  0  0  0  0  0  0  0  0  0
    1.2456   -0.7620   -2.8450 C   0  0  0  0  0  0  0  0  0  0  0  0
    2.9564    0.8322   -4.2457 H   0  0  0  0  0  0  0  0  0  0  0  0
    2.8904    2.2491   -3.1703 H   0  0  0  0  0  0  0  0  0  0  0  0
    3.5282    0.7015   -2.5652 H   0  0  0  0  0  0  0  0  0  0  0  0
    0.6478    1.2233   -3.4298 H   0  0  0  0  0  0  0  0  0  0  0  0
    1.2521    2.3111   -1.2849 H   0  0  0  0  0  0  0  0  0  0  0  0
    1.8900    0.7635   -0.6798 H   0  0  0  0  0  0  0  0  0  0  0  0
   -0.9905    1.2853   -1.5444 H   0  0  0  0  0  0  0  0  0  0  0  0
   -0.3526   -0.2623   -0.9392 H   0  0  0  0  0  0  0  0  0  0  0  0
   -0.3861    2.3731    0.6004 H   0  0  0  0  0  0  0  0  0  0  0  0
   -2.0569    1.2166    2.0216 H   0  0  0  0  0  0  0  0  0  0  0  0
   -1.9908   -0.2003    0.9462 H   0  0  0  0  0  0  0  0  0  0  0  0
   -3.9281    1.2460    0.3947 H   0  0  0  0  0  0  0  0  0  0  0  0
   -2.8270    2.6187    0.1269 H   0  0  0  0  0  0  0  0  0  0  0  0
   -2.7609    1.2018   -0.9485 H   0  0  0  0  0  0  0  0  0  0  0  0
    0.4500   -0.4459    1.4197 H   0  0  0  0  0  0  0  0  0  0  0  0
    1.5511    0.9268    1.1519 H   0  0  0  0  0  0  0  0  0  0  0  0
    1.0544    0.6419    3.5645 H   0  0  0  0  0  0  0  0  0  0  0  0
   -0.6846    0.8168    3.2272 H   0  0  0  0  0  0  0  0  0  0  0  0
    0.4165    2.1895    2.9594 H   0  0  0  0  0  0  0  0  0  0  0  0
    0.2438   -1.0504   -2.5266 H   0  0  0  0  0  0  0  0  0  0  0  0
    1.4110   -1.0946   -3.8698 H   0  0  0  0  0  0  0  0  0  0  0  0
    1.9828   -1.2253   -2.1893 H   0  0  0  0  0  0  0  0  0  0  0  0
  1  2  1  0  0  0  0
  2  3  1  0  0  0  0
  3  4  1  0  0  0  0
  4  5  1  0  0  0  0
  5  6  1  0  0  0  0
  6  7  1  0  0  0  0
  8  9  1  0  0  0  0
  5  8  1  0  0  0  0
  2 10  1  0  0  0  0
  1 11  1  0  0  0  0
  1 12  1  0  0  0  0
  1 13  1  0  0  0  0
  2 14  1  0  0  0  0
  3 15  1  0  0  0  0
  3 16  1  0  0  0  0
  4 17  1  0  0  0  0
  4 18  1  0  0  0  0
  5 19  1  0  0  0  0
  6 20  1  0  0  0  0
  6 21  1  0  0  0  0
  7 22  1  0  0  0  0
  7 23  1  0  0  0  0
  7 24  1  0  0  0  0
  8 25  1  0  0  0  0
  8 26  1  0  0  0  0
  9 27  1  0  0  0  0
  9 28  1  0  0  0  0
  9 29  1  0  0  0  0
 10 30  1  0  0  0  0
 10 31  1  0  0  0  0
 10 32  1  0  0  0  0
M  END