117
  Mrv0541 07151418403D          

 32 31  0  0  0  0            999 V2000
    1.1381   -1.0747    2.3484 C   0  0  0  0  0  0  0  0  0  0  0  0
    1.0725   -1.3731    0.8492 C   0  0  2  0  0  0  0  0  0  0  0  0
    2.0255   -0.4387    0.1011 C   0  0  1  0  0  0  0  0  0  0  0  0
    3.4540   -0.6587    0.6029 C   0  0  2  0  0  0  0  0  0  0  0  0
    4.4069    0.2757   -0.1452 C   0  0  2  0  0  0  0  0  0  0  0  0
    5.8355    0.0557    0.3566 C   0  0  1  0  0  0  0  0  0  0  0  0
    6.7884    0.9901   -0.3915 C   0  0  0  0  0  0  0  0  0  0  0  0
    1.9599   -0.7370   -1.3981 C   0  0  2  0  0  0  0  0  0  0  0  0
    0.5314   -0.5169   -1.8999 C   0  0  0  0  0  0  0  0  0  0  0  0
    3.8640   -2.1115    0.3536 C   0  0  0  0  0  0  0  0  0  0  0  0
    0.4592   -1.7404    2.8813 H   0  0  0  0  0  0  0  0  0  0  0  0
    0.8460   -0.0397    2.5260 H   0  0  0  0  0  0  0  0  0  0  0  0
    2.1558   -1.2315    2.7058 H   0  0  0  0  0  0  0  0  0  0  0  0
    0.0548   -1.2163    0.4917 H   0  0  0  0  0  0  0  0  0  0  0  0
    1.3646   -2.4081    0.6715 H   0  0  0  0  0  0  0  0  0  0  0  0
    1.7334    0.5963    0.2787 H   0  0  0  0  0  0  0  0  0  0  0  0
    3.5007   -0.4462    1.6709 H   0  0  0  0  0  0  0  0  0  0  0  0
    4.1148    1.3107    0.0324 H   0  0  0  0  0  0  0  0  0  0  0  0
    4.3602    0.0632   -1.2133 H   0  0  0  0  0  0  0  0  0  0  0  0
    5.8822    0.2682    1.4246 H   0  0  0  0  0  0  0  0  0  0  0  0
    6.1276   -0.9793    0.1790 H   0  0  0  0  0  0  0  0  0  0  0  0
    7.8061    0.8333   -0.0340 H   0  0  0  0  0  0  0  0  0  0  0  0
    6.4963    2.0251   -0.2139 H   0  0  0  0  0  0  0  0  0  0  0  0
    6.7417    0.7776   -1.4596 H   0  0  0  0  0  0  0  0  0  0  0  0
    2.2520   -1.7720   -1.5757 H   0  0  0  0  0  0  0  0  0  0  0  0
    2.6388   -0.0713   -1.9311 H   0  0  0  0  0  0  0  0  0  0  0  0
    0.4847   -0.7295   -2.9680 H   0  0  0  0  0  0  0  0  0  0  0  0
   -0.1475   -1.1826   -1.3670 H   0  0  0  0  0  0  0  0  0  0  0  0
    0.2393    0.5181   -1.7223 H   0  0  0  0  0  0  0  0  0  0  0  0
    4.8817   -2.2683    0.7110 H   0  0  0  0  0  0  0  0  0  0  0  0
    3.1851   -2.7772    0.8865 H   0  0  0  0  0  0  0  0  0  0  0  0
    3.8173   -2.3240   -0.7145 H   0  0  0  0  0  0  0  0  0  0  0  0
  1  2  1  0  0  0  0
  2  3  1  0  0  0  0
  3  4  1  0  0  0  0
  4  5  1  0  0  0  0
  5  6  1  0  0  0  0
  6  7  1  0  0  0  0
  8  9  1  0  0  0  0
  3  8  1  0  0  0  0
  4 10  1  0  0  0  0
  1 11  1  0  0  0  0
  1 12  1  0  0  0  0
  1 13  1  0  0  0  0
  2 14  1  0  0  0  0
  2 15  1  0  0  0  0
  3 16  1  0  0  0  0
  4 17  1  0  0  0  0
  5 18  1  0  0  0  0
  5 19  1  0  0  0  0
  6 20  1  0  0  0  0
  6 21  1  0  0  0  0
  7 22  1  0  0  0  0
  7 23  1  0  0  0  0
  7 24  1  0  0  0  0
  8 25  1  0  0  0  0
  8 26  1  0  0  0  0
  9 27  1  0  0  0  0
  9 28  1  0  0  0  0
  9 29  1  0  0  0  0
 10 30  1  0  0  0  0
 10 31  1  0  0  0  0
 10 32  1  0  0  0  0
M  END