119
  Mrv0541 07151418403D          

 32 31  0  0  0  0            999 V2000
   -2.0323    2.2903   -1.8739 C   0  0  0  0  0  0  0  0  0  0  0  0
   -1.7378    1.4574   -0.6246 C   0  0  2  0  0  0  0  0  0  0  0  0
   -0.2656    1.0410   -0.6246 C   0  0  1  0  0  0  0  0  0  0  0  0
    0.0289    0.2082    0.6246 C   0  0  1  0  0  0  0  0  0  0  0  0
    1.5011   -0.2082    0.6246 C   0  0  2  0  0  0  0  0  0  0  0  0
    1.7956   -1.0410   -0.6246 C   0  0  1  0  0  0  0  0  0  0  0  0
    3.2678   -1.4574   -0.6246 C   0  0  0  0  0  0  0  0  0  0  0  0
   -0.2656    1.0410    1.8739 C   0  0  2  0  0  0  0  0  0  0  0  0
    0.0289    0.2082    3.1231 C   0  0  1  0  0  0  0  0  0  0  0  0
   -0.2656    1.0410    4.3723 C   0  0  0  0  0  0  0  0  0  0  0  0
   -3.0811    2.5869   -1.8739 H   0  0  0  0  0  0  0  0  0  0  0  0
   -1.8225    1.6970   -2.7638 H   0  0  0  0  0  0  0  0  0  0  0  0
   -1.4030    3.1803   -1.8739 H   0  0  0  0  0  0  0  0  0  0  0  0
   -2.3671    0.5675   -0.6246 H   0  0  0  0  0  0  0  0  0  0  0  0
   -1.9476    2.0508    0.2654 H   0  0  0  0  0  0  0  0  0  0  0  0
   -0.0558    0.4477   -1.5146 H   0  0  0  0  0  0  0  0  0  0  0  0
    0.3637    1.9310   -0.6246 H   0  0  0  0  0  0  0  0  0  0  0  0
   -0.6004   -0.6818    0.6246 H   0  0  0  0  0  0  0  0  0  0  0  0
    1.7109   -0.8015    1.5146 H   0  0  0  0  0  0  0  0  0  0  0  0
    2.1304    0.6818    0.6246 H   0  0  0  0  0  0  0  0  0  0  0  0
    1.1663   -1.9310   -0.6246 H   0  0  0  0  0  0  0  0  0  0  0  0
    1.5858   -0.4477   -1.5146 H   0  0  0  0  0  0  0  0  0  0  0  0
    3.4776   -2.0508   -1.5146 H   0  0  0  0  0  0  0  0  0  0  0  0
    3.4776   -2.0508    0.2654 H   0  0  0  0  0  0  0  0  0  0  0  0
    3.8971   -0.5675   -0.6246 H   0  0  0  0  0  0  0  0  0  0  0  0
   -1.3144    1.3377    1.8739 H   0  0  0  0  0  0  0  0  0  0  0  0
    0.3637    1.9310    1.8739 H   0  0  0  0  0  0  0  0  0  0  0  0
   -0.6004   -0.6818    3.1231 H   0  0  0  0  0  0  0  0  0  0  0  0
    1.0777   -0.0885    3.1231 H   0  0  0  0  0  0  0  0  0  0  0  0
   -0.0558    0.4477    5.2623 H   0  0  0  0  0  0  0  0  0  0  0  0
   -1.3144    1.3377    4.3723 H   0  0  0  0  0  0  0  0  0  0  0  0
    0.3637    1.9310    4.3723 H   0  0  0  0  0  0  0  0  0  0  0  0
  1  2  1  0  0  0  0
  2  3  1  0  0  0  0
  3  4  1  0  0  0  0
  4  5  1  0  0  0  0
  5  6  1  0  0  0  0
  6  7  1  0  0  0  0
  8  9  1  0  0  0  0
  9 10  1  0  0  0  0
  4  8  1  0  0  0  0
  1 11  1  0  0  0  0
  1 12  1  0  0  0  0
  1 13  1  0  0  0  0
  2 14  1  0  0  0  0
  2 15  1  0  0  0  0
  3 16  1  0  0  0  0
  3 17  1  0  0  0  0
  4 18  1  0  0  0  0
  5 19  1  0  0  0  0
  5 20  1  0  0  0  0
  6 21  1  0  0  0  0
  6 22  1  0  0  0  0
  7 23  1  0  0  0  0
  7 24  1  0  0  0  0
  7 25  1  0  0  0  0
  8 26  1  0  0  0  0
  8 27  1  0  0  0  0
  9 28  1  0  0  0  0
  9 29  1  0  0  0  0
 10 30  1  0  0  0  0
 10 31  1  0  0  0  0
 10 32  1  0  0  0  0
M  END