129
  Mrv0541 07151418403D          

 32 31  0  0  0  0            999 V2000
    2.5392   -1.7648    0.9751 C   0  0  0  0  0  0  0  0  0  0  0  0
    2.8200   -0.7642   -0.1859 C   0  0  2  0  0  0  0  0  0  0  0  0
    1.5142   -0.0546   -0.8069 C   0  0  2  0  0  0  0  0  0  0  0  0
    1.7889    1.0023   -2.0133 C   0  0  1  0  0  0  0  0  0  0  0  0
    0.4128    1.5513   -2.6251 C   0  0  1  0  0  0  0  0  0  0  0  0
    0.5012    2.5943   -3.7788 C   0  0  0  0  0  0  0  0  0  0  0  0
    3.7693   -1.5735   -1.1492 C   0  0  0  0  0  0  0  0  0  0  0  0
    0.5964    0.5409    0.3629 C   0  0  0  0  0  0  0  0  0  0  0  0
    2.6787    2.1871   -1.4752 C   0  0  0  0  0  0  0  0  0  0  0  0
    2.5100    0.3626   -3.2884 C   0  0  0  0  0  0  0  0  0  0  0  0
    3.4742   -2.1868    1.3478 H   0  0  0  0  0  0  0  0  0  0  0  0
    1.9113   -2.5723    0.6129 H   0  0  0  0  0  0  0  0  0  0  0  0
    2.0706   -1.2874    1.8249 H   0  0  0  0  0  0  0  0  0  0  0  0
    3.4341    0.0074    0.2672 H   0  0  0  0  0  0  0  0  0  0  0  0
    0.9053   -0.8649   -1.2102 H   0  0  0  0  0  0  0  0  0  0  0  0
   -0.2057    0.7108   -2.9515 H   0  0  0  0  0  0  0  0  0  0  0  0
   -0.1736    2.0542   -1.8621 H   0  0  0  0  0  0  0  0  0  0  0  0
   -0.5003    2.9326   -4.0679 H   0  0  0  0  0  0  0  0  0  0  0  0
    0.9553    2.2167   -4.6935 H   0  0  0  0  0  0  0  0  0  0  0  0
    1.0744    3.4559   -3.4376 H   0  0  0  0  0  0  0  0  0  0  0  0
    4.4043   -0.9529   -1.7669 H   0  0  0  0  0  0  0  0  0  0  0  0
    3.2025   -2.2421   -1.7799 H   0  0  0  0  0  0  0  0  0  0  0  0
    4.4869   -2.2082   -0.6225 H   0  0  0  0  0  0  0  0  0  0  0  0
   -0.3462    0.9583    0.0078 H   0  0  0  0  0  0  0  0  0  0  0  0
    0.2887   -0.2008    1.1120 H   0  0  0  0  0  0  0  0  0  0  0  0
    1.1205    1.3296    0.8962 H   0  0  0  0  0  0  0  0  0  0  0  0
    2.9769    2.8799   -2.2691 H   0  0  0  0  0  0  0  0  0  0  0  0
    2.1538    2.7674   -0.7158 H   0  0  0  0  0  0  0  0  0  0  0  0
    3.6038    1.8274   -1.0195 H   0  0  0  0  0  0  0  0  0  0  0  0
    2.5002    0.9595   -4.1853 H   0  0  0  0  0  0  0  0  0  0  0  0
    2.0637   -0.5809   -3.5865 H   0  0  0  0  0  0  0  0  0  0  0  0
    3.5718    0.2169   -3.1686 H   0  0  0  0  0  0  0  0  0  0  0  0
  1  2  1  0  0  0  0
  2  3  1  0  0  0  0
  3  4  1  0  0  0  0
  4  5  1  0  0  0  0
  5  6  1  0  0  0  0
  2  7  1  0  0  0  0
  3  8  1  0  0  0  0
  4  9  1  0  0  0  0
  4 10  1  0  0  0  0
  1 11  1  0  0  0  0
  1 12  1  0  0  0  0
  1 13  1  0  0  0  0
  2 14  1  0  0  0  0
  3 15  1  0  0  0  0
  5 16  1  0  0  0  0
  5 17  1  0  0  0  0
  6 18  1  0  0  0  0
  6 19  1  0  0  0  0
  6 20  1  0  0  0  0
  7 21  1  0  0  0  0
  7 22  1  0  0  0  0
  7 23  1  0  0  0  0
  8 24  1  0  0  0  0
  8 25  1  0  0  0  0
  8 26  1  0  0  0  0
  9 27  1  0  0  0  0
  9 28  1  0  0  0  0
  9 29  1  0  0  0  0
 10 30  1  0  0  0  0
 10 31  1  0  0  0  0
 10 32  1  0  0  0  0
M  END