130
  Mrv0541 07151418403D          

 32 31  0  0  0  0            999 V2000
    0.7516    2.7978   -3.3246 C   0  0  0  0  0  0  0  0  0  0  0  0
    0.4701    1.9210   -2.1028 C   0  0  2  0  0  0  0  0  0  0  0  0
    1.6533    0.9801   -1.8667 C   0  0  2  0  0  0  0  0  0  0  0  0
    1.3719    0.1033   -0.6449 C   0  0  1  0  0  0  0  0  0  0  0  0
    2.5551   -0.8375   -0.4088 C   0  0  1  0  0  0  0  0  0  0  0  0
    2.2736   -1.7143    0.8130 C   0  0  0  0  0  0  0  0  0  0  0  0
   -0.7958    1.0971   -2.3469 C   0  0  0  0  0  0  0  0  0  0  0  0
    2.9193    1.8040   -1.6226 C   0  0  0  0  0  0  0  0  0  0  0  0
    1.1731    0.9913    0.5851 C   0  0  0  0  0  0  0  0  0  0  0  0
    2.7538   -1.7255   -1.6388 C   0  0  0  0  0  0  0  0  0  0  0  0
   -0.0913    3.4681   -3.4928 H   0  0  0  0  0  0  0  0  0  0  0  0
    0.8932    2.1652   -4.2009 H   0  0  0  0  0  0  0  0  0  0  0  0
    1.6535    3.3847   -3.1507 H   0  0  0  0  0  0  0  0  0  0  0  0
    0.3286    2.5536   -1.2265 H   0  0  0  0  0  0  0  0  0  0  0  0
    1.7949    0.3475   -2.7430 H   0  0  0  0  0  0  0  0  0  0  0  0
    0.4700   -0.4836   -0.8188 H   0  0  0  0  0  0  0  0  0  0  0  0
    3.4569   -0.2506   -0.2349 H   0  0  0  0  0  0  0  0  0  0  0  0
    3.1165   -2.3846    0.9812 H   0  0  0  0  0  0  0  0  0  0  0  0
    1.3717   -2.3012    0.6391 H   0  0  0  0  0  0  0  0  0  0  0  0
    2.1320   -1.0817    1.6893 H   0  0  0  0  0  0  0  0  0  0  0  0
   -0.9963    0.4725   -1.4765 H   0  0  0  0  0  0  0  0  0  0  0  0
   -1.6387    1.7674   -2.5151 H   0  0  0  0  0  0  0  0  0  0  0  0
   -0.6542    0.4645   -3.2232 H   0  0  0  0  0  0  0  0  0  0  0  0
    3.7622    1.1337   -1.4544 H   0  0  0  0  0  0  0  0  0  0  0  0
    2.7777    2.4366   -0.7463 H   0  0  0  0  0  0  0  0  0  0  0  0
    3.1198    2.4286   -2.4930 H   0  0  0  0  0  0  0  0  0  0  0  0
    0.9726    0.3667    1.4556 H   0  0  0  0  0  0  0  0  0  0  0  0
    0.3302    1.6616    0.4170 H   0  0  0  0  0  0  0  0  0  0  0  0
    2.0750    1.5782    0.7591 H   0  0  0  0  0  0  0  0  0  0  0  0
    3.5968   -2.3958   -1.4707 H   0  0  0  0  0  0  0  0  0  0  0  0
    1.8520   -2.3124   -1.8128 H   0  0  0  0  0  0  0  0  0  0  0  0
    2.9543   -1.1009   -2.5093 H   0  0  0  0  0  0  0  0  0  0  0  0
  1  2  1  0  0  0  0
  2  3  1  0  0  0  0
  3  4  1  0  0  0  0
  4  5  1  0  0  0  0
  5  6  1  0  0  0  0
  2  7  1  0  0  0  0
  3  8  1  0  0  0  0
  4  9  1  0  0  0  0
  5 10  1  0  0  0  0
  1 11  1  0  0  0  0
  1 12  1  0  0  0  0
  1 13  1  0  0  0  0
  2 14  1  0  0  0  0
  3 15  1  0  0  0  0
  4 16  1  0  0  0  0
  5 17  1  0  0  0  0
  6 18  1  0  0  0  0
  6 19  1  0  0  0  0
  6 20  1  0  0  0  0
  7 21  1  0  0  0  0
  7 22  1  0  0  0  0
  7 23  1  0  0  0  0
  8 24  1  0  0  0  0
  8 25  1  0  0  0  0
  8 26  1  0  0  0  0
  9 27  1  0  0  0  0
  9 28  1  0  0  0  0
  9 29  1  0  0  0  0
 10 30  1  0  0  0  0
 10 31  1  0  0  0  0
 10 32  1  0  0  0  0
M  END