133
  Mrv0541 07151418403D          

 32 31  0  0  0  0            999 V2000
    2.1136    2.5027    0.2112 C   0  0  0  0  0  0  0  0  0  0  0  0
    1.3906    1.2303    0.7537 C   0  0  2  0  0  0  0  0  0  0  0  0
    0.8305    0.4051   -0.4555 C   0  0  1  0  0  0  0  0  0  0  0  0
   -0.0356   -0.8940   -0.1473 C   0  0  1  0  0  0  0  0  0  0  0  0
   -0.6143   -1.5363   -1.4323 C   0  0  2  0  0  0  0  0  0  0  0  0
   -1.5715   -0.6069   -2.1993 C   0  0  0  0  0  0  0  0  0  0  0  0
    0.8132   -1.9600    0.6160 C   0  0  2  0  0  0  0  0  0  0  0  0
    0.0469   -3.2060    1.1544 C   0  0  0  0  0  0  0  0  0  0  0  0
    0.1766    1.6567    1.6611 C   0  0  0  0  0  0  0  0  0  0  0  0
    2.5395    0.5149    1.5372 C   0  0  0  0  0  0  0  0  0  0  0  0
    2.4957    3.1293    1.0262 H   0  0  0  0  0  0  0  0  0  0  0  0
    1.4139    3.1211   -0.3533 H   0  0  0  0  0  0  0  0  0  0  0  0
    2.9346    2.2407   -0.4743 H   0  0  0  0  0  0  0  0  0  0  0  0
    0.2034    1.1216   -0.9941 H   0  0  0  0  0  0  0  0  0  0  0  0
    1.6134    0.1364   -1.1738 H   0  0  0  0  0  0  0  0  0  0  0  0
   -0.9067   -0.6296    0.4584 H   0  0  0  0  0  0  0  0  0  0  0  0
   -1.2414   -2.3969   -1.1642 H   0  0  0  0  0  0  0  0  0  0  0  0
    0.2102   -1.8700   -2.0720 H   0  0  0  0  0  0  0  0  0  0  0  0
   -1.9799   -1.1812   -3.0301 H   0  0  0  0  0  0  0  0  0  0  0  0
   -2.3730   -0.2894   -1.5153 H   0  0  0  0  0  0  0  0  0  0  0  0
   -1.0414    0.2647   -2.5953 H   0  0  0  0  0  0  0  0  0  0  0  0
    1.0922   -1.4975    1.5504 H   0  0  0  0  0  0  0  0  0  0  0  0
    1.7237   -2.2129    0.0672 H   0  0  0  0  0  0  0  0  0  0  0  0
    0.7397   -3.8163    1.7683 H   0  0  0  0  0  0  0  0  0  0  0  0
   -0.7999   -2.8682    1.7764 H   0  0  0  0  0  0  0  0  0  0  0  0
   -0.3392   -3.8505    0.3379 H   0  0  0  0  0  0  0  0  0  0  0  0
   -0.3941    0.8137    2.0560 H   0  0  0  0  0  0  0  0  0  0  0  0
   -0.5299    2.2708    1.0836 H   0  0  0  0  0  0  0  0  0  0  0  0
    0.5092    2.2308    2.5180 H   0  0  0  0  0  0  0  0  0  0  0  0
    2.2104    0.0150    2.4441 H   0  0  0  0  0  0  0  0  0  0  0  0
    3.0314   -0.2054    0.8835 H   0  0  0  0  0  0  0  0  0  0  0  0
    3.2541    1.2757    1.8513 H   0  0  0  0  0  0  0  0  0  0  0  0
  1  2  1  0  0  0  0
  2  3  1  0  0  0  0
  3  4  1  0  0  0  0
  4  5  1  0  0  0  0
  5  6  1  0  0  0  0
  7  8  1  0  0  0  0
  4  7  1  0  0  0  0
  2  9  1  0  0  0  0
  2 10  1  0  0  0  0
  1 11  1  0  0  0  0
  1 12  1  0  0  0  0
  1 13  1  0  0  0  0
  3 14  1  0  0  0  0
  3 15  1  0  0  0  0
  4 16  1  0  0  0  0
  5 17  1  0  0  0  0
  5 18  1  0  0  0  0
  6 19  1  0  0  0  0
  6 20  1  0  0  0  0
  6 21  1  0  0  0  0
  7 22  1  0  0  0  0
  7 23  1  0  0  0  0
  8 24  1  0  0  0  0
  8 25  1  0  0  0  0
  8 26  1  0  0  0  0
  9 27  1  0  0  0  0
  9 28  1  0  0  0  0
  9 29  1  0  0  0  0
 10 30  1  0  0  0  0
 10 31  1  0  0  0  0
 10 32  1  0  0  0  0
M  END