136
  Mrv0541 07151418403D          

 32 31  0  0  0  0            999 V2000
    0.9227    1.7643    0.8806 C   0  0  0  0  0  0  0  0  0  0  0  0
    0.9451    1.1185   -0.5378 C   0  0  1  0  0  0  0  0  0  0  0  0
    1.3709   -0.4312   -0.7173 C   0  0  1  0  0  0  0  0  0  0  0  0
    0.3315   -1.4975   -0.0697 C   0  0  1  0  0  0  0  0  0  0  0  0
    0.7408   -3.0091   -0.3012 C   0  0  1  0  0  0  0  0  0  0  0  0
   -0.3299   -4.0785    0.1098 C   0  0  0  0  0  0  0  0  0  0  0  0
    1.7552   -0.7304   -2.2454 C   0  0  2  0  0  0  0  0  0  0  0  0
    2.8462    0.1536   -2.9248 C   0  0  0  0  0  0  0  0  0  0  0  0
   -0.3467    1.4749   -1.3276 C   0  0  0  0  0  0  0  0  0  0  0  0
   -0.0113   -1.2843    1.4596 C   0  0  0  0  0  0  0  0  0  0  0  0
    1.1481    2.8370    0.8213 H   0  0  0  0  0  0  0  0  0  0  0  0
   -0.0423    1.7125    1.3963 H   0  0  0  0  0  0  0  0  0  0  0  0
    1.6989    1.3425    1.5144 H   0  0  0  0  0  0  0  0  0  0  0  0
    1.7459    1.7034   -1.0004 H   0  0  0  0  0  0  0  0  0  0  0  0
    2.3124   -0.5445   -0.1935 H   0  0  0  0  0  0  0  0  0  0  0  0
   -0.5823   -1.3601   -0.6446 H   0  0  0  0  0  0  0  0  0  0  0  0
    0.8730   -3.1991   -1.3688 H   0  0  0  0  0  0  0  0  0  0  0  0
    1.6930   -3.2579    0.1730 H   0  0  0  0  0  0  0  0  0  0  0  0
   -0.0519   -5.0791   -0.2141 H   0  0  0  0  0  0  0  0  0  0  0  0
   -1.2757   -3.8271   -0.3585 H   0  0  0  0  0  0  0  0  0  0  0  0
   -0.4804   -4.1329    1.1840 H   0  0  0  0  0  0  0  0  0  0  0  0
    0.8624   -0.7020   -2.8682 H   0  0  0  0  0  0  0  0  0  0  0  0
    2.1607   -1.7359   -2.3353 H   0  0  0  0  0  0  0  0  0  0  0  0
    3.0321   -0.1731   -3.9554 H   0  0  0  0  0  0  0  0  0  0  0  0
    2.5670    1.2021   -2.9663 H   0  0  0  0  0  0  0  0  0  0  0  0
    3.7837    0.0610   -2.3856 H   0  0  0  0  0  0  0  0  0  0  0  0
   -0.2256    1.2900   -2.3914 H   0  0  0  0  0  0  0  0  0  0  0  0
   -1.1845    0.8733   -0.9714 H   0  0  0  0  0  0  0  0  0  0  0  0
   -0.6096    2.5335   -1.2072 H   0  0  0  0  0  0  0  0  0  0  0  0
   -0.5649   -2.1101    1.9135 H   0  0  0  0  0  0  0  0  0  0  0  0
   -0.6678   -0.4400    1.6069 H   0  0  0  0  0  0  0  0  0  0  0  0
    0.9149   -1.1639    2.0217 H   0  0  0  0  0  0  0  0  0  0  0  0
  1  2  1  0  0  0  0
  2  3  1  0  0  0  0
  3  4  1  0  0  0  0
  4  5  1  0  0  0  0
  5  6  1  0  0  0  0
  7  8  1  0  0  0  0
  3  7  1  0  0  0  0
  2  9  1  0  0  0  0
  4 10  1  0  0  0  0
  1 11  1  0  0  0  0
  1 12  1  0  0  0  0
  1 13  1  0  0  0  0
  2 14  1  0  0  0  0
  3 15  1  0  0  0  0
  4 16  1  0  0  0  0
  5 17  1  0  0  0  0
  5 18  1  0  0  0  0
  6 19  1  0  0  0  0
  6 20  1  0  0  0  0
  6 21  1  0  0  0  0
  7 22  1  0  0  0  0
  7 23  1  0  0  0  0
  8 24  1  0  0  0  0
  8 25  1  0  0  0  0
  8 26  1  0  0  0  0
  9 27  1  0  0  0  0
  9 28  1  0  0  0  0
  9 29  1  0  0  0  0
 10 30  1  0  0  0  0
 10 31  1  0  0  0  0
 10 32  1  0  0  0  0
M  END