138
  Mrv0541 07151418403D          

 32 31  0  0  0  0            999 V2000
    0.8192    1.3045    0.8996 C   0  0  0  0  0  0  0  0  0  0  0  0
    1.0315    1.0057   -0.5859 C   0  0  1  0  0  0  0  0  0  0  0  0
    1.4507   -0.4557   -0.7573 C   0  0  1  0  0  0  0  0  0  0  0  0
    0.3544   -1.3689   -0.2050 C   0  0  2  0  0  0  0  0  0  0  0  0
    0.7736   -2.8304   -0.3765 C   0  0  2  0  0  0  0  0  0  0  0  0
   -0.3227   -3.7436    0.1758 C   0  0  0  0  0  0  0  0  0  0  0  0
    1.6630   -0.7545   -2.2428 C   0  0  2  0  0  0  0  0  0  0  0  0
    2.7593    0.1587   -2.7951 C   0  0  0  0  0  0  0  0  0  0  0  0
   -0.2718    1.2551   -1.3476 C   0  0  0  0  0  0  0  0  0  0  0  0
    2.0769   -3.0798    0.3852 C   0  0  0  0  0  0  0  0  0  0  0  0
    0.5205    2.3456    1.0217 H   0  0  0  0  0  0  0  0  0  0  0  0
    0.0381    0.6539    1.2930 H   0  0  0  0  0  0  0  0  0  0  0  0
    1.7476    1.1268    1.4422 H   0  0  0  0  0  0  0  0  0  0  0  0
    1.8125    1.6563   -0.9794 H   0  0  0  0  0  0  0  0  0  0  0  0
    2.3792   -0.6334   -0.2147 H   0  0  0  0  0  0  0  0  0  0  0  0
   -0.5741   -1.1912   -0.7477 H   0  0  0  0  0  0  0  0  0  0  0  0
    0.2032   -1.1561    0.8532 H   0  0  0  0  0  0  0  0  0  0  0  0
    0.9249   -3.0432   -1.4348 H   0  0  0  0  0  0  0  0  0  0  0  0
   -0.0240   -4.7847    0.0537 H   0  0  0  0  0  0  0  0  0  0  0  0
   -1.2511   -3.5659   -0.3668 H   0  0  0  0  0  0  0  0  0  0  0  0
   -0.4739   -3.5307    1.2341 H   0  0  0  0  0  0  0  0  0  0  0  0
    0.7345   -0.5768   -2.7854 H   0  0  0  0  0  0  0  0  0  0  0  0
    1.9616   -1.7956   -2.3649 H   0  0  0  0  0  0  0  0  0  0  0  0
    2.9105   -0.0541   -3.8534 H   0  0  0  0  0  0  0  0  0  0  0  0
    2.4606    1.1999   -2.6730 H   0  0  0  0  0  0  0  0  0  0  0  0
    3.6877   -0.0190   -2.2524 H   0  0  0  0  0  0  0  0  0  0  0  0
   -0.1206    1.0423   -2.4059 H   0  0  0  0  0  0  0  0  0  0  0  0
   -1.0528    0.6045   -0.9541 H   0  0  0  0  0  0  0  0  0  0  0  0
   -0.5705    2.2963   -1.2255 H   0  0  0  0  0  0  0  0  0  0  0  0
    2.3756   -4.1209    0.2631 H   0  0  0  0  0  0  0  0  0  0  0  0
    1.9257   -2.8669    1.4435 H   0  0  0  0  0  0  0  0  0  0  0  0
    2.8579   -2.4292   -0.0082 H   0  0  0  0  0  0  0  0  0  0  0  0
  1  2  1  0  0  0  0
  2  3  1  0  0  0  0
  3  4  1  0  0  0  0
  4  5  1  0  0  0  0
  5  6  1  0  0  0  0
  7  8  1  0  0  0  0
  3  7  1  0  0  0  0
  2  9  1  0  0  0  0
  5 10  1  0  0  0  0
  1 11  1  0  0  0  0
  1 12  1  0  0  0  0
  1 13  1  0  0  0  0
  2 14  1  0  0  0  0
  3 15  1  0  0  0  0
  4 16  1  0  0  0  0
  4 17  1  0  0  0  0
  5 18  1  0  0  0  0
  6 19  1  0  0  0  0
  6 20  1  0  0  0  0
  6 21  1  0  0  0  0
  7 22  1  0  0  0  0
  7 23  1  0  0  0  0
  8 24  1  0  0  0  0
  8 25  1  0  0  0  0
  8 26  1  0  0  0  0
  9 27  1  0  0  0  0
  9 28  1  0  0  0  0
  9 29  1  0  0  0  0
 10 30  1  0  0  0  0
 10 31  1  0  0  0  0
 10 32  1  0  0  0  0
M  END