140
  Mrv0541 07151418403D          

 32 31  0  0  0  0            999 V2000
   -0.0891    1.4073   -1.4396 C   0  0  0  0  0  0  0  0  0  0  0  0
    0.4833    0.5491   -0.3097 C   0  0  2  0  0  0  0  0  0  0  0  0
    1.6334   -0.3035   -0.8494 C   0  0  1  0  0  0  0  0  0  0  0  0
    2.7297    0.6097   -1.4017 C   0  0  2  0  0  0  0  0  0  0  0  0
    3.8798   -0.2429   -1.9413 C   0  0  2  0  0  0  0  0  0  0  0  0
    4.9761    0.6703   -2.4936 C   0  0  0  0  0  0  0  0  0  0  0  0
    2.2058   -1.1618    0.2805 C   0  0  2  0  0  0  0  0  0  0  0  0
    1.1095   -2.0750    0.8328 C   0  0  0  0  0  0  0  0  0  0  0  0
    1.1148   -1.2111   -1.9666 C   0  0  0  0  0  0  0  0  0  0  0  0
    3.2483    1.5173   -0.2844 C   0  0  0  0  0  0  0  0  0  0  0  0
   -0.9084    2.0147   -1.0552 H   0  0  0  0  0  0  0  0  0  0  0  0
   -0.4585    0.7608   -2.2356 H   0  0  0  0  0  0  0  0  0  0  0  0
    0.6919    2.0579   -1.8331 H   0  0  0  0  0  0  0  0  0  0  0  0
   -0.2977   -0.1015    0.0837 H   0  0  0  0  0  0  0  0  0  0  0  0
    0.8528    1.1957    0.4862 H   0  0  0  0  0  0  0  0  0  0  0  0
    2.3219    1.2211   -2.2067 H   0  0  0  0  0  0  0  0  0  0  0  0
    3.5104   -0.8895   -2.7373 H   0  0  0  0  0  0  0  0  0  0  0  0
    4.2876   -0.8543   -1.1364 H   0  0  0  0  0  0  0  0  0  0  0  0
    5.7955    0.0629   -2.8781 H   0  0  0  0  0  0  0  0  0  0  0  0
    4.5683    1.2818   -3.2986 H   0  0  0  0  0  0  0  0  0  0  0  0
    5.3456    1.3169   -1.6977 H   0  0  0  0  0  0  0  0  0  0  0  0
    2.5753   -0.5152    1.0765 H   0  0  0  0  0  0  0  0  0  0  0  0
    3.0252   -1.7692   -0.1039 H   0  0  0  0  0  0  0  0  0  0  0  0
    1.5173   -2.6864    1.6378 H   0  0  0  0  0  0  0  0  0  0  0  0
    0.2901   -1.4676    1.2173 H   0  0  0  0  0  0  0  0  0  0  0  0
    0.7400   -2.7216    0.0369 H   0  0  0  0  0  0  0  0  0  0  0  0
    1.9342   -1.8185   -2.3511 H   0  0  0  0  0  0  0  0  0  0  0  0
    0.3338   -1.8617   -1.5732 H   0  0  0  0  0  0  0  0  0  0  0  0
    0.7070   -0.5997   -2.7716 H   0  0  0  0  0  0  0  0  0  0  0  0
    4.0293    2.1679   -0.6779 H   0  0  0  0  0  0  0  0  0  0  0  0
    2.4289    2.1247    0.1000 H   0  0  0  0  0  0  0  0  0  0  0  0
    3.6561    0.9059    0.5205 H   0  0  0  0  0  0  0  0  0  0  0  0
  1  2  1  0  0  0  0
  2  3  1  0  0  0  0
  3  4  1  0  0  0  0
  4  5  1  0  0  0  0
  5  6  1  0  0  0  0
  7  8  1  0  0  0  0
  3  7  1  0  0  0  0
  3  9  1  0  0  0  0
  4 10  1  0  0  0  0
  1 11  1  0  0  0  0
  1 12  1  0  0  0  0
  1 13  1  0  0  0  0
  2 14  1  0  0  0  0
  2 15  1  0  0  0  0
  4 16  1  0  0  0  0
  5 17  1  0  0  0  0
  5 18  1  0  0  0  0
  6 19  1  0  0  0  0
  6 20  1  0  0  0  0
  6 21  1  0  0  0  0
  7 22  1  0  0  0  0
  7 23  1  0  0  0  0
  8 24  1  0  0  0  0
  8 25  1  0  0  0  0
  8 26  1  0  0  0  0
  9 27  1  0  0  0  0
  9 28  1  0  0  0  0
  9 29  1  0  0  0  0
 10 30  1  0  0  0  0
 10 31  1  0  0  0  0
 10 32  1  0  0  0  0
M  END