141
  Mrv0541 07151418403D          

 32 31  0  0  0  0            999 V2000
   -0.4309   -0.4898   -1.0729 C   0  0  0  0  0  0  0  0  0  0  0  0
    0.2751    0.0707    0.1633 C   0  0  1  0  0  0  0  0  0  0  0  0
    1.5442    0.8100   -0.2655 C   0  0  1  0  0  0  0  0  0  0  0  0
    2.4790   -0.1599   -0.9909 C   0  0  2  0  0  0  0  0  0  0  0  0
    3.7480    0.5794   -1.4197 C   0  0  1  0  0  0  0  0  0  0  0  0
    4.6829   -0.3905   -2.1452 C   0  0  0  0  0  0  0  0  0  0  0  0
    1.1723    1.9588   -1.2051 C   0  0  2  0  0  0  0  0  0  0  0  0
    0.2375    2.9287   -0.4796 C   0  0  0  0  0  0  0  0  0  0  0  0
    2.2503    1.3704    0.9707 C   0  0  2  0  0  0  0  0  0  0  0  0
    2.6221    0.2216    1.9103 C   0  0  0  0  0  0  0  0  0  0  0  0
   -1.3350   -1.0165   -0.7675 H   0  0  0  0  0  0  0  0  0  0  0  0
   -0.6959    0.3287   -1.7423 H   0  0  0  0  0  0  0  0  0  0  0  0
    0.2350   -1.1807   -1.5897 H   0  0  0  0  0  0  0  0  0  0  0  0
   -0.3908    0.7617    0.6801 H   0  0  0  0  0  0  0  0  0  0  0  0
    0.5401   -0.7478    0.8327 H   0  0  0  0  0  0  0  0  0  0  0  0
    1.9760   -0.5592   -1.8716 H   0  0  0  0  0  0  0  0  0  0  0  0
    2.7439   -0.9784   -0.3216 H   0  0  0  0  0  0  0  0  0  0  0  0
    3.4831    1.3978   -2.0891 H   0  0  0  0  0  0  0  0  0  0  0  0
    4.2511    0.9787   -0.5390 H   0  0  0  0  0  0  0  0  0  0  0  0
    5.5869    0.1362   -2.4506 H   0  0  0  0  0  0  0  0  0  0  0  0
    4.1798   -0.7898   -3.0259 H   0  0  0  0  0  0  0  0  0  0  0  0
    4.9478   -1.2089   -1.4758 H   0  0  0  0  0  0  0  0  0  0  0  0
    0.6693    1.5596   -2.0858 H   0  0  0  0  0  0  0  0  0  0  0  0
    2.0764    2.4855   -1.5106 H   0  0  0  0  0  0  0  0  0  0  0  0
   -0.0275    3.7472   -1.1490 H   0  0  0  0  0  0  0  0  0  0  0  0
   -0.6666    2.4020   -0.1742 H   0  0  0  0  0  0  0  0  0  0  0  0
    0.7405    3.3280    0.4011 H   0  0  0  0  0  0  0  0  0  0  0  0
    1.5843    2.0614    1.4875 H   0  0  0  0  0  0  0  0  0  0  0  0
    3.1543    1.8971    0.6653 H   0  0  0  0  0  0  0  0  0  0  0  0
    3.1252    0.6209    2.7910 H   0  0  0  0  0  0  0  0  0  0  0  0
    1.7181   -0.3051    2.2158 H   0  0  0  0  0  0  0  0  0  0  0  0
    3.2881   -0.4694    1.3935 H   0  0  0  0  0  0  0  0  0  0  0  0
  1  2  1  0  0  0  0
  2  3  1  0  0  0  0
  3  4  1  0  0  0  0
  4  5  1  0  0  0  0
  5  6  1  0  0  0  0
  7  8  1  0  0  0  0
  3  7  1  0  0  0  0
  9 10  1  0  0  0  0
  3  9  1  0  0  0  0
  1 11  1  0  0  0  0
  1 12  1  0  0  0  0
  1 13  1  0  0  0  0
  2 14  1  0  0  0  0
  2 15  1  0  0  0  0
  4 16  1  0  0  0  0
  4 17  1  0  0  0  0
  5 18  1  0  0  0  0
  5 19  1  0  0  0  0
  6 20  1  0  0  0  0
  6 21  1  0  0  0  0
  6 22  1  0  0  0  0
  7 23  1  0  0  0  0
  7 24  1  0  0  0  0
  8 25  1  0  0  0  0
  8 26  1  0  0  0  0
  8 27  1  0  0  0  0
  9 28  1  0  0  0  0
  9 29  1  0  0  0  0
 10 30  1  0  0  0  0
 10 31  1  0  0  0  0
 10 32  1  0  0  0  0
M  END