145
  Mrv0541 07151418403D          

 32 31  0  0  0  0            999 V2000
    2.9900    0.7413   -0.0402 C   0  0  0  0  0  0  0  0  0  0  0  0
    1.5732    0.1133   -0.3435 C   0  0  1  0  0  0  0  0  0  0  0  0
    0.4296    1.2323   -0.5233 C   0  0  2  0  0  0  0  0  0  0  0  0
   -1.1121    0.7831   -0.7399 C   0  0  2  0  0  0  0  0  0  0  0  0
   -2.1000    1.9971   -0.7566 C   0  0  0  0  0  0  0  0  0  0  0  0
    1.7122   -0.7709   -1.6201 C   0  0  0  0  0  0  0  0  0  0  0  0
    1.3801   -0.8678    0.8835 C   0  0  0  0  0  0  0  0  0  0  0  0
    0.8515    2.3417   -1.5756 C   0  0  0  0  0  0  0  0  0  0  0  0
   -1.6726   -0.1530    0.3951 C   0  0  0  0  0  0  0  0  0  0  0  0
   -1.3739    0.0746   -2.1013 C   0  0  0  0  0  0  0  0  0  0  0  0
    3.7411   -0.0359    0.1038 H   0  0  0  0  0  0  0  0  0  0  0  0
    2.9571    1.3345    0.8697 H   0  0  0  0  0  0  0  0  0  0  0  0
    3.3483    1.3526   -0.8492 H   0  0  0  0  0  0  0  0  0  0  0  0
    0.4159    1.7793    0.4180 H   0  0  0  0  0  0  0  0  0  0  0  0
   -3.1437    1.6813   -0.8403 H   0  0  0  0  0  0  0  0  0  0  0  0
   -2.0047    2.5459    0.1761 H   0  0  0  0  0  0  0  0  0  0  0  0
   -1.9177    2.6803   -1.5747 H   0  0  0  0  0  0  0  0  0  0  0  0
    0.8466   -1.3913   -1.7804 H   0  0  0  0  0  0  0  0  0  0  0  0
    1.8798   -0.1563   -2.5061 H   0  0  0  0  0  0  0  0  0  0  0  0
    2.5403   -1.4775   -1.5372 H   0  0  0  0  0  0  0  0  0  0  0  0
    0.6333   -1.6351    0.7226 H   0  0  0  0  0  0  0  0  0  0  0  0
    1.1591   -0.3250    1.8072 H   0  0  0  0  0  0  0  0  0  0  0  0
    2.2776   -1.4521    1.0900 H   0  0  0  0  0  0  0  0  0  0  0  0
    0.1886    3.1998   -1.5776 H   0  0  0  0  0  0  0  0  0  0  0  0
    0.8705    1.9272   -2.5804 H   0  0  0  0  0  0  0  0  0  0  0  0
    1.8292    2.7659   -1.3759 H   0  0  0  0  0  0  0  0  0  0  0  0
   -2.7562   -0.2852    0.3374 H   0  0  0  0  0  0  0  0  0  0  0  0
   -1.4778    0.2915    1.3755 H   0  0  0  0  0  0  0  0  0  0  0  0
   -1.2930   -1.1679    0.3756 H   0  0  0  0  0  0  0  0  0  0  0  0
   -2.4273   -0.1961   -2.1733 H   0  0  0  0  0  0  0  0  0  0  0  0
   -1.1155    0.7492   -2.9175 H   0  0  0  0  0  0  0  0  0  0  0  0
   -0.7623   -0.8253   -2.1661 H   0  0  0  0  0  0  0  0  0  0  0  0
  1  2  1  0  0  0  0
  2  3  1  0  0  0  0
  3  4  1  0  0  0  0
  4  5  1  0  0  0  0
  2  6  1  0  0  0  0
  2  7  1  0  0  0  0
  3  8  1  0  0  0  0
  4  9  1  0  0  0  0
  4 10  1  0  0  0  0
  1 11  1  0  0  0  0
  1 12  1  0  0  0  0
  1 13  1  0  0  0  0
  3 14  1  0  0  0  0
  5 15  1  0  0  0  0
  5 16  1  0  0  0  0
  5 17  1  0  0  0  0
  6 18  1  0  0  0  0
  6 19  1  0  0  0  0
  6 20  1  0  0  0  0
  7 21  1  0  0  0  0
  7 22  1  0  0  0  0
  7 23  1  0  0  0  0
  8 24  1  0  0  0  0
  8 25  1  0  0  0  0
  8 26  1  0  0  0  0
  9 27  1  0  0  0  0
  9 28  1  0  0  0  0
  9 29  1  0  0  0  0
 10 30  1  0  0  0  0
 10 31  1  0  0  0  0
 10 32  1  0  0  0  0
M  END