147
  Mrv0541 07151418403D          

 32 31  0  0  0  0            999 V2000
   -0.4196    0.4615   -2.3278 C   0  0  0  0  0  0  0  0  0  0  0  0
   -0.1516    0.9504   -0.8391 C   0  0  2  0  0  0  0  0  0  0  0  0
    0.5795   -0.1583    0.0942 C   0  0  1  0  0  0  0  0  0  0  0  0
    0.9936    0.2853    1.5973 C   0  0  2  0  0  0  0  0  0  0  0  0
    1.8415    1.6080    1.7294 C   0  0  0  0  0  0  0  0  0  0  0  0
   -0.2595   -1.5093    0.0885 C   0  0  1  0  0  0  0  0  0  0  0  0
    0.3033   -2.8017    0.7294 C   0  0  0  0  0  0  0  0  0  0  0  0
   -1.5307    1.3850   -0.2238 C   0  0  0  0  0  0  0  0  0  0  0  0
    0.7332    2.2074   -1.1385 C   0  0  0  0  0  0  0  0  0  0  0  0
    1.8079   -0.7198    2.4555 C   0  0  0  0  0  0  0  0  0  0  0  0
   -0.8643    1.2425   -2.9512 H   0  0  0  0  0  0  0  0  0  0  0  0
   -1.1143   -0.3687   -2.3753 H   0  0  0  0  0  0  0  0  0  0  0  0
    0.4993    0.1515   -2.8252 H   0  0  0  0  0  0  0  0  0  0  0  0
    1.5175   -0.4059   -0.4014 H   0  0  0  0  0  0  0  0  0  0  0  0
    0.0770    0.4545    2.1499 H   0  0  0  0  0  0  0  0  0  0  0  0
    2.1983    1.8368    2.7508 H   0  0  0  0  0  0  0  0  0  0  0  0
    1.2418    2.4827    1.4840 H   0  0  0  0  0  0  0  0  0  0  0  0
    2.7412    1.5587    1.1020 H   0  0  0  0  0  0  0  0  0  0  0  0
   -1.2437   -1.3431    0.5371 H   0  0  0  0  0  0  0  0  0  0  0  0
   -0.4312   -1.8266   -0.9471 H   0  0  0  0  0  0  0  0  0  0  0  0
   -0.2859   -3.6710    0.4534 H   0  0  0  0  0  0  0  0  0  0  0  0
    0.2362   -2.7485    1.8260 H   0  0  0  0  0  0  0  0  0  0  0  0
    1.3376   -2.9651    0.4212 H   0  0  0  0  0  0  0  0  0  0  0  0
   -1.4094    1.7424    0.8028 H   0  0  0  0  0  0  0  0  0  0  0  0
   -2.2322    0.5511   -0.2023 H   0  0  0  0  0  0  0  0  0  0  0  0
   -2.0127    2.1844   -0.7984 H   0  0  0  0  0  0  0  0  0  0  0  0
    0.5008    3.1028   -0.5453 H   0  0  0  0  0  0  0  0  0  0  0  0
    0.6740    2.4491   -2.1997 H   0  0  0  0  0  0  0  0  0  0  0  0
    1.7708    1.9253   -0.9599 H   0  0  0  0  0  0  0  0  0  0  0  0
    2.0092   -0.2829    3.4335 H   0  0  0  0  0  0  0  0  0  0  0  0
    1.2354   -1.6392    2.5791 H   0  0  0  0  0  0  0  0  0  0  0  0
    2.7507   -0.9433    1.9563 H   0  0  0  0  0  0  0  0  0  0  0  0
  1  2  1  0  0  0  0
  2  3  1  0  0  0  0
  3  4  1  0  0  0  0
  4  5  1  0  0  0  0
  6  7  1  0  0  0  0
  3  6  1  0  0  0  0
  2  8  1  0  0  0  0
  2  9  1  0  0  0  0
  4 10  1  0  0  0  0
  1 11  1  0  0  0  0
  1 12  1  0  0  0  0
  1 13  1  0  0  0  0
  3 14  1  0  0  0  0
  4 15  1  0  0  0  0
  5 16  1  0  0  0  0
  5 17  1  0  0  0  0
  5 18  1  0  0  0  0
  6 19  1  0  0  0  0
  6 20  1  0  0  0  0
  7 21  1  0  0  0  0
  7 22  1  0  0  0  0
  7 23  1  0  0  0  0
  8 24  1  0  0  0  0
  8 25  1  0  0  0  0
  8 26  1  0  0  0  0
  9 27  1  0  0  0  0
  9 28  1  0  0  0  0
  9 29  1  0  0  0  0
 10 30  1  0  0  0  0
 10 31  1  0  0  0  0
 10 32  1  0  0  0  0
M  END