./000064-17-5.hin
 OpenBabel09251311033D

  9  8  0  0  0  0  0  0  0  0999 V2000
   -2.6946    3.2740    0.0000 C   0  0  0  0  0  0  0  0  0  0  0  0
   -2.6807    4.7856    0.0000 C   0  0  0  0  0  0  0  0  0  0  0  0
   -4.0319    5.2207   -0.0000 O   0  0  0  0  0  0  0  0  0  0  0  0
   -1.6461    2.8925   -0.0000 H   0  0  0  0  0  0  0  0  0  0  0  0
   -3.2249    2.8910    0.9045 H   0  0  0  0  0  0  0  0  0  0  0  0
   -3.2249    2.8910   -0.9045 H   0  0  0  0  0  0  0  0  0  0  0  0
   -2.1554    5.1778    0.9128 H   0  0  0  0  0  0  0  0  0  0  0  0
   -2.1554    5.1778   -0.9128 H   0  0  0  0  0  0  0  0  0  0  0  0
   -4.0117    6.1841   -0.0000 H   0  0  0  0  0  0  0  0  0  0  0  0
  1  2  1  0  0  0  0
  1  4  1  0  0  0  0
  1  5  1  0  0  0  0
  1  6  1  0  0  0  0
  2  3  1  0  0  0  0
  2  7  1  0  0  0  0
  2  8  1  0  0  0  0
  3  9  1  0  0  0  0
M  END
