./000074-85-1.hin
 OpenBabel09251311033D

  6  5  0  0  0  0  0  0  0  0999 V2000
   -2.1603    1.0565    0.0000 C   0  0  0  0  0  0  0  0  0  0  0  0
   -2.1603    2.3824   -0.0000 C   0  0  0  0  0  0  0  0  0  0  0  0
   -1.2363    0.4629    0.0000 H   0  0  0  0  0  0  0  0  0  0  0  0
   -3.0844    0.4629   -0.0000 H   0  0  0  0  0  0  0  0  0  0  0  0
   -3.0844    2.9760   -0.0000 H   0  0  0  0  0  0  0  0  0  0  0  0
   -1.2363    2.9760   -0.0000 H   0  0  0  0  0  0  0  0  0  0  0  0
  1  2  2  0  0  0  0
  1  3  1  0  0  0  0
  1  4  1  0  0  0  0
  2  5  1  0  0  0  0
  2  6  1  0  0  0  0
M  END
