./000074-98-6.hin
 OpenBabel09251311033D

 11 10  0  0  0  0  0  0  0  0999 V2000
   -0.2946   -0.4442    0.0000 C   0  0  0  0  0  0  0  0  0  0  0  0
   -0.3252    1.0627    0.0000 C   0  0  0  0  0  0  0  0  0  0  0  0
    0.7595   -0.8126    0.0000 H   0  0  0  0  0  0  0  0  0  0  0  0
   -0.8097   -0.8484    0.9049 H   0  0  0  0  0  0  0  0  0  0  0  0
   -0.8097   -0.8484   -0.9049 H   0  0  0  0  0  0  0  0  0  0  0  0
   -1.7357    1.5938   -0.0000 C   0  0  0  0  0  0  0  0  0  0  0  0
    0.2197    1.4480    0.9024 H   0  0  0  0  0  0  0  0  0  0  0  0
    0.2197    1.4480   -0.9024 H   0  0  0  0  0  0  0  0  0  0  0  0
   -1.7317    2.7104    0.0000 H   0  0  0  0  0  0  0  0  0  0  0  0
   -2.2885    1.2429   -0.9049 H   0  0  0  0  0  0  0  0  0  0  0  0
   -2.2885    1.2429    0.9049 H   0  0  0  0  0  0  0  0  0  0  0  0
  1  2  1  0  0  0  0
  1  3  1  0  0  0  0
  1  4  1  0  0  0  0
  1  5  1  0  0  0  0
  2  6  1  0  0  0  0
  2  7  1  0  0  0  0
  2  8  1  0  0  0  0
  6  9  1  0  0  0  0
  6 10  1  0  0  0  0
  6 11  1  0  0  0  0
M  END
