./000075-35-4.hin
 OpenBabel09251311033D

  6  5  0  0  0  0  0  0  0  0999 V2000
   -1.2771   -1.4842    0.2622 C   0  0  0  0  0  0  0  0  0  0  0  0
   -1.2771   -0.1495    0.2622 C   0  0  0  0  0  0  0  0  0  0  0  0
   -2.7129    0.7595    0.2622 Cl  0  0  0  0  0  0  0  0  0  0  0  0
   -0.3469   -2.0684    0.2622 H   0  0  0  0  0  0  0  0  0  0  0  0
    0.1587    0.7595    0.2622 Cl  0  0  0  0  0  0  0  0  0  0  0  0
   -2.2073   -2.0684    0.2622 H   0  0  0  0  0  0  0  0  0  0  0  0
  1  2  2  0  0  0  0
  1  4  1  0  0  0  0
  1  6  1  0  0  0  0
  2  3  1  0  0  0  0
  2  5  1  0  0  0  0
M  END
