./000078-84-2.hin
 OpenBabel09251311033D

 13 12  0  0  0  0  0  0  0  0999 V2000
    1.4169    4.7622    0.3516 C   0  0  0  0  0  0  0  0  0  0  0  0
    1.4297    6.2680    0.3081 C   0  0  0  0  0  0  0  0  0  0  0  0
    2.8459    6.8021    0.2775 C   0  0  0  0  0  0  0  0  0  0  0  0
    0.6410    4.2752   -0.2823 H   0  0  0  0  0  0  0  0  0  0  0  0
    0.6307    6.7797   -0.8701 C   0  0  0  0  0  0  0  0  0  0  0  0
    2.8400    7.9124    0.3909 H   0  0  0  0  0  0  0  0  0  0  0  0
    3.4421    6.3544    1.1098 H   0  0  0  0  0  0  0  0  0  0  0  0
    3.3407    6.5470   -0.6903 H   0  0  0  0  0  0  0  0  0  0  0  0
    2.1862    4.0975    1.0454 O   0  0  0  0  0  0  0  0  0  0  0  0
    0.9352    6.6184    1.2613 H   0  0  0  0  0  0  0  0  0  0  0  0
    0.6211    7.8963   -0.8684 H   0  0  0  0  0  0  0  0  0  0  0  0
    1.0803    6.4332   -1.8319 H   0  0  0  0  0  0  0  0  0  0  0  0
   -0.4237    6.4153   -0.8193 H   0  0  0  0  0  0  0  0  0  0  0  0
  1  2  1  0  0  0  0
  1  4  1  0  0  0  0
  1  9  2  0  0  0  0
  2  3  1  0  0  0  0
  2  5  1  0  0  0  0
  2 10  1  0  0  0  0
  3  6  1  0  0  0  0
  3  7  1  0  0  0  0
  3  8  1  0  0  0  0
  5 11  1  0  0  0  0
  5 12  1  0  0  0  0
  5 13  1  0  0  0  0
M  END
