./000079-01-6.hin
 OpenBabel09251311033D

  6  5  0  0  0  0  0  0  0  0999 V2000
    1.2223   -1.6770    0.2603 C   0  0  0  0  0  0  0  0  0  0  0  0
    1.2214   -0.3345    0.2603 C   0  0  0  0  0  0  0  0  0  0  0  0
    2.6161   -2.6180    0.2603 Cl  0  0  0  0  0  0  0  0  0  0  0  0
    0.2945   -2.2683    0.2603 H   0  0  0  0  0  0  0  0  0  0  0  0
   -0.2466    0.5188    0.2603 Cl  0  0  0  0  0  0  0  0  0  0  0  0
    2.6238    0.6087    0.2603 Cl  0  0  0  0  0  0  0  0  0  0  0  0
  1  2  2  0  0  0  0
  1  3  1  0  0  0  0
  1  4  1  0  0  0  0
  2  5  1  0  0  0  0
  2  6  1  0  0  0  0
M  END
