./000087-44-5.hin
 OpenBabel09251311033D

 39 40  0  0  1  0  0  0  0  0999 V2000
   -0.8243   -2.1769   -0.4789 C   0  0  0  0  0  0  0  0  0  0  0  0
    0.6992   -2.0444   -0.2052 C   0  0  0  0  0  0  0  0  0  0  0  0
    0.5728   -0.5038   -0.1157 C   0  0  1  0  0  0  0  0  0  0  0  0
   -0.9674   -0.6253   -0.3280 C   0  0  1  0  0  0  0  0  0  0  0  0
    0.9785    0.1198    1.1693 C   0  0  0  0  0  0  0  0  0  0  0  0
    1.7028    1.4233    1.0915 C   0  0  0  0  0  0  0  0  0  0  0  0
    0.9965    2.4857    0.2655 C   0  0  0  0  0  0  0  0  0  0  0  0
   -0.4364    2.6227    0.6161 C   0  0  0  0  0  0  0  0  0  0  0  0
   -1.4806    2.2362   -0.1330 C   0  0  0  0  0  0  0  0  0  0  0  0
   -1.5633    0.1075   -1.4974 C   0  0  0  0  0  0  0  0  0  0  0  0
   -1.3619    1.6130   -1.4804 C   0  0  0  0  0  0  0  0  0  0  0  0
   -2.8758    2.4304    0.3404 C   0  0  0  0  0  0  0  0  0  0  0  0
    0.7297   -0.4426    2.3581 C   0  0  0  0  0  0  0  0  0  0  0  0
   -1.5686   -2.9389    0.5875 C   0  0  0  0  0  0  0  0  0  0  0  0
   -1.1352   -2.7394   -1.8407 C   0  0  0  0  0  0  0  0  0  0  0  0
    1.3373   -2.3874   -1.0470 H   0  0  0  0  0  0  0  0  0  0  0  0
    1.0287   -2.5323    0.7364 H   0  0  0  0  0  0  0  0  0  0  0  0
    1.0728    0.0050   -0.9754 H   0  0  0  0  0  0  0  0  0  0  0  0
   -1.5246   -0.3563    0.6040 H   0  0  0  0  0  0  0  0  0  0  0  0
    2.7172    1.2402    0.6420 H   0  0  0  0  0  0  0  0  0  0  0  0
    1.8673    1.8239    2.1285 H   0  0  0  0  0  0  0  0  0  0  0  0
    1.1361    2.2543   -0.8233 H   0  0  0  0  0  0  0  0  0  0  0  0
    1.5066    3.4716    0.4512 H   0  0  0  0  0  0  0  0  0  0  0  0
   -0.6155    3.0826    1.6040 H   0  0  0  0  0  0  0  0  0  0  0  0
   -2.6650   -0.1157   -1.5170 H   0  0  0  0  0  0  0  0  0  0  0  0
   -1.1317   -0.2794   -2.4594 H   0  0  0  0  0  0  0  0  0  0  0  0
   -2.1324    2.0759   -2.1579 H   0  0  0  0  0  0  0  0  0  0  0  0
   -0.3618    1.8467   -1.9337 H   0  0  0  0  0  0  0  0  0  0  0  0
   -2.9083    2.8242    1.3853 H   0  0  0  0  0  0  0  0  0  0  0  0
   -3.4105    3.1529   -0.3258 H   0  0  0  0  0  0  0  0  0  0  0  0
   -3.4242    1.4553    0.3112 H   0  0  0  0  0  0  0  0  0  0  0  0
    0.2108   -1.4038    2.4615 H   0  0  0  0  0  0  0  0  0  0  0  0
    1.0282    0.0270    3.3041 H   0  0  0  0  0  0  0  0  0  0  0  0
   -1.3627   -2.5146    1.5998 H   0  0  0  0  0  0  0  0  0  0  0  0
   -2.6687   -2.8875    0.4006 H   0  0  0  0  0  0  0  0  0  0  0  0
   -1.2566   -4.0116    0.5848 H   0  0  0  0  0  0  0  0  0  0  0  0
   -0.9876   -3.8473   -1.8397 H   0  0  0  0  0  0  0  0  0  0  0  0
   -2.1954   -2.5223   -2.1178 H   0  0  0  0  0  0  0  0  0  0  0  0
   -0.4656   -2.3013   -2.6201 H   0  0  0  0  0  0  0  0  0  0  0  0
  1  2  1  0  0  0  0
  1  4  1  0  0  0  0
  1 14  1  0  0  0  0
  1 15  1  0  0  0  0
  2  3  1  0  0  0  0
  2 16  1  0  0  0  0
  2 17  1  0  0  0  0
  3  4  1  0  0  0  0
  3  5  1  0  0  0  0
  3 18  1  6  0  0  0
  4 10  1  0  0  0  0
  4 19  1  1  0  0  0
  5  6  1  0  0  0  0
  5 13  2  0  0  0  0
  6  7  1  0  0  0  0
  6 20  1  0  0  0  0
  6 21  1  0  0  0  0
  7  8  1  0  0  0  0
  7 22  1  0  0  0  0
  7 23  1  0  0  0  0
  8  9  2  0  0  0  0
  8 24  1  0  0  0  0
  9 11  1  0  0  0  0
  9 12  1  0  0  0  0
 10 11  1  0  0  0  0
 10 25  1  0  0  0  0
 10 26  1  0  0  0  0
 11 27  1  0  0  0  0
 11 28  1  0  0  0  0
 12 29  1  0  0  0  0
 12 30  1  0  0  0  0
 12 31  1  0  0  0  0
 13 32  1  0  0  0  0
 13 33  1  0  0  0  0
 14 34  1  0  0  0  0
 14 35  1  0  0  0  0
 14 36  1  0  0  0  0
 15 37  1  0  0  0  0
 15 38  1  0  0  0  0
 15 39  1  0  0  0  0
M  END
