./000095-63-6.hin
 OpenBabel09251311033D

 21 21  0  0  0  0  0  0  0  0999 V2000
   -3.6728   -0.2407   -0.0000 C   0  0  0  0  0  0  0  0  0  0  0  0
   -3.6829    1.1604   -0.0000 C   0  0  0  0  0  0  0  0  0  0  0  0
   -2.4615    1.8546   -0.0000 C   0  0  0  0  0  0  0  0  0  0  0  0
   -1.2617    1.1342   -0.0000 C   0  0  0  0  0  0  0  0  0  0  0  0
   -1.2560   -0.2635   -0.0000 C   0  0  0  0  0  0  0  0  0  0  0  0
   -2.4757   -0.9486   -0.0000 C   0  0  0  0  0  0  0  0  0  0  0  0
   -4.9928    1.8540   -0.0000 C   0  0  0  0  0  0  0  0  0  0  0  0
   -4.6289   -0.7855   -0.0000 H   0  0  0  0  0  0  0  0  0  0  0  0
   -2.4879   -2.0489   -0.0000 H   0  0  0  0  0  0  0  0  0  0  0  0
   -4.8819    2.9650   -0.0000 H   0  0  0  0  0  0  0  0  0  0  0  0
   -5.5817    1.5611   -0.9056 H   0  0  0  0  0  0  0  0  0  0  0  0
   -5.5817    1.5611    0.9056 H   0  0  0  0  0  0  0  0  0  0  0  0
   -2.4137    3.3366   -0.0000 C   0  0  0  0  0  0  0  0  0  0  0  0
   -1.3589    3.7071   -0.0000 H   0  0  0  0  0  0  0  0  0  0  0  0
   -2.9262    3.7451   -0.9069 H   0  0  0  0  0  0  0  0  0  0  0  0
   -2.9262    3.7451    0.9069 H   0  0  0  0  0  0  0  0  0  0  0  0
    0.0295   -0.9988   -0.0000 C   0  0  0  0  0  0  0  0  0  0  0  0
   -0.3030    1.6754   -0.0000 H   0  0  0  0  0  0  0  0  0  0  0  0
   -0.1340   -2.1043    0.0000 H   0  0  0  0  0  0  0  0  0  0  0  0
    0.6287   -0.7313   -0.9061 H   0  0  0  0  0  0  0  0  0  0  0  0
    0.6287   -0.7313    0.9061 H   0  0  0  0  0  0  0  0  0  0  0  0
  1  2  2  0  0  0  0
  1  6  1  0  0  0  0
  1  8  1  0  0  0  0
  2  3  1  0  0  0  0
  2  7  1  0  0  0  0
  3  4  2  0  0  0  0
  3 13  1  0  0  0  0
  4  5  1  0  0  0  0
  4 18  1  0  0  0  0
  5  6  2  0  0  0  0
  5 17  1  0  0  0  0
  6  9  1  0  0  0  0
  7 10  1  0  0  0  0
  7 11  1  0  0  0  0
  7 12  1  0  0  0  0
 13 14  1  0  0  0  0
 13 15  1  0  0  0  0
 13 16  1  0  0  0  0
 17 19  1  0  0  0  0
 17 20  1  0  0  0  0
 17 21  1  0  0  0  0
M  END
