./000096-17-3.hin
 OpenBabel09251311033D

 16 15  0  0  1  0  0  0  0  0999 V2000
   -0.2752   -0.1189   -0.4159 C   0  0  1  0  0  0  0  0  0  0  0  0
   -0.3514    1.4006   -0.4354 C   0  0  0  0  0  0  0  0  0  0  0  0
   -1.7716    1.8963   -0.5180 C   0  0  0  0  0  0  0  0  0  0  0  0
    1.1668   -0.5828   -0.4224 C   0  0  0  0  0  0  0  0  0  0  0  0
   -0.9624   -0.6578    0.8130 C   0  0  0  0  0  0  0  0  0  0  0  0
   -1.8573   -1.5009    0.7693 O   0  0  0  0  0  0  0  0  0  0  0  0
   -0.7945   -0.5209   -1.3318 H   0  0  0  0  0  0  0  0  0  0  0  0
    0.1411    1.8104    0.4861 H   0  0  0  0  0  0  0  0  0  0  0  0
    0.2309    1.7763   -1.3181 H   0  0  0  0  0  0  0  0  0  0  0  0
   -1.7916    3.0131   -0.5224 H   0  0  0  0  0  0  0  0  0  0  0  0
   -2.2660    1.5306   -1.4505 H   0  0  0  0  0  0  0  0  0  0  0  0
   -2.3665    1.5349    0.3565 H   0  0  0  0  0  0  0  0  0  0  0  0
    1.2163   -1.6984   -0.4282 H   0  0  0  0  0  0  0  0  0  0  0  0
    1.6875   -0.1989   -1.3325 H   0  0  0  0  0  0  0  0  0  0  0  0
    1.7073   -0.2061    0.4794 H   0  0  0  0  0  0  0  0  0  0  0  0
   -0.5958   -0.2416    1.7782 H   0  0  0  0  0  0  0  0  0  0  0  0
  1  2  1  0  0  0  0
  1  4  1  0  0  0  0
  1  5  1  0  0  0  0
  1  7  1  6  0  0  0
  2  3  1  0  0  0  0
  2  8  1  0  0  0  0
  2  9  1  0  0  0  0
  3 10  1  0  0  0  0
  3 11  1  0  0  0  0
  3 12  1  0  0  0  0
  4 13  1  0  0  0  0
  4 14  1  0  0  0  0
  4 15  1  0  0  0  0
  5  6  2  0  0  0  0
  5 16  1  0  0  0  0
M  END
