./000099-85-4.hin
 OpenBabel09251311033D

 26 26  0  0  0  0  0  0  0  0999 V2000
    2.1771    0.1438   -0.4982 C   0  0  0  0  0  0  0  0  0  0  0  0
    1.5793    1.3981   -4.6492 C   0  0  0  0  0  0  0  0  0  0  0  0
    2.2542    1.8864   -2.2998 C   0  0  0  0  0  0  0  0  0  0  0  0
    2.0398    3.3518   -2.4757 C   0  0  0  0  0  0  0  0  0  0  0  0
    2.0414    1.0137   -3.2944 C   0  0  0  0  0  0  0  0  0  0  0  0
    1.6284    3.7415   -3.8446 C   0  0  0  0  0  0  0  0  0  0  0  0
    1.4152    2.8668   -4.8375 C   0  0  0  0  0  0  0  0  0  0  0  0
    0.5955    0.8908   -4.8586 H   0  0  0  0  0  0  0  0  0  0  0  0
    2.3140    1.0110   -5.4103 H   0  0  0  0  0  0  0  0  0  0  0  0
    2.9912    3.8928   -2.2081 H   0  0  0  0  0  0  0  0  0  0  0  0
    1.2521    3.6964   -1.7474 H   0  0  0  0  0  0  0  0  0  0  0  0
    2.2043   -0.0665   -3.1507 H   0  0  0  0  0  0  0  0  0  0  0  0
    1.5014    4.8245   -4.0028 H   0  0  0  0  0  0  0  0  0  0  0  0
    1.0009    3.2880   -6.1964 C   0  0  0  0  0  0  0  0  0  0  0  0
    2.7365    1.4810   -0.9407 C   0  0  0  0  0  0  0  0  0  0  0  0
    4.2538    1.4554   -0.9043 C   0  0  0  0  0  0  0  0  0  0  0  0
    1.0687    0.1224   -0.6275 H   0  0  0  0  0  0  0  0  0  0  0  0
    2.6204   -0.6913   -1.0921 H   0  0  0  0  0  0  0  0  0  0  0  0
    2.4157   -0.0298    0.5790 H   0  0  0  0  0  0  0  0  0  0  0  0
    1.7665    2.9697   -6.9478 H   0  0  0  0  0  0  0  0  0  0  0  0
    0.0267    2.8092   -6.4673 H   0  0  0  0  0  0  0  0  0  0  0  0
    0.8802    4.3968   -6.2638 H   0  0  0  0  0  0  0  0  0  0  0  0
    2.3832    2.2595   -0.2018 H   0  0  0  0  0  0  0  0  0  0  0  0
    4.6657    2.4549   -1.1831 H   0  0  0  0  0  0  0  0  0  0  0  0
    4.6077    1.1949    0.1220 H   0  0  0  0  0  0  0  0  0  0  0  0
    4.6495    0.6964   -1.6210 H   0  0  0  0  0  0  0  0  0  0  0  0
  1 15  1  0  0  0  0
  1 17  1  0  0  0  0
  1 18  1  0  0  0  0
  1 19  1  0  0  0  0
  2  5  1  0  0  0  0
  2  7  1  0  0  0  0
  2  8  1  0  0  0  0
  2  9  1  0  0  0  0
  3  4  1  0  0  0  0
  3  5  2  0  0  0  0
  3 15  1  0  0  0  0
  4  6  1  0  0  0  0
  4 10  1  0  0  0  0
  4 11  1  0  0  0  0
  5 12  1  0  0  0  0
  6  7  2  0  0  0  0
  6 13  1  0  0  0  0
  7 14  1  0  0  0  0
 14 20  1  0  0  0  0
 14 21  1  0  0  0  0
 14 22  1  0  0  0  0
 15 16  1  0  0  0  0
 15 23  1  0  0  0  0
 16 24  1  0  0  0  0
 16 25  1  0  0  0  0
 16 26  1  0  0  0  0
M  END
