./000100-66-3.hin
 OpenBabel09251311033D

 16 16  0  0  0  0  0  0  0  0999 V2000
   -0.8303   -0.7127   -0.0000 C   0  0  0  0  0  0  0  0  0  0  0  0
   -0.9196    0.6798   -0.0000 C   0  0  0  0  0  0  0  0  0  0  0  0
    0.4111   -1.3436   -0.0000 C   0  0  0  0  0  0  0  0  0  0  0  0
    1.5810   -0.5796    0.0000 C   0  0  0  0  0  0  0  0  0  0  0  0
    1.5179    0.8087    0.0000 C   0  0  0  0  0  0  0  0  0  0  0  0
    0.2577    1.4367    0.0000 C   0  0  0  0  0  0  0  0  0  0  0  0
   -1.7520   -1.3135   -0.0000 H   0  0  0  0  0  0  0  0  0  0  0  0
   -1.9058    1.1627   -0.0000 H   0  0  0  0  0  0  0  0  0  0  0  0
    0.4728   -2.4411   -0.0000 H   0  0  0  0  0  0  0  0  0  0  0  0
    2.5616   -1.0785    0.0000 H   0  0  0  0  0  0  0  0  0  0  0  0
    2.4285    1.4234    0.0000 H   0  0  0  0  0  0  0  0  0  0  0  0
    0.3010    2.8184    0.0000 O   0  0  0  0  0  0  0  0  0  0  0  0
   -0.9554    3.4848   -0.0000 C   0  0  0  0  0  0  0  0  0  0  0  0
   -0.6751    4.5686   -0.0000 H   0  0  0  0  0  0  0  0  0  0  0  0
   -1.5385    3.2287   -0.9178 H   0  0  0  0  0  0  0  0  0  0  0  0
   -1.5385    3.2287    0.9177 H   0  0  0  0  0  0  0  0  0  0  0  0
  1  2  2  0  0  0  0
  1  3  1  0  0  0  0
  1  7  1  0  0  0  0
  2  6  1  0  0  0  0
  2  8  1  0  0  0  0
  3  4  2  0  0  0  0
  3  9  1  0  0  0  0
  4  5  1  0  0  0  0
  4 10  1  0  0  0  0
  5  6  2  0  0  0  0
  5 11  1  0  0  0  0
  6 12  1  0  0  0  0
 12 13  1  0  0  0  0
 13 14  1  0  0  0  0
 13 15  1  0  0  0  0
 13 16  1  0  0  0  0
M  END
