./000107-02-8.hin
 OpenBabel09251311033D

  8  7  0  0  0  0  0  0  0  0999 V2000
   -2.7092    2.8484   -3.5043 C   0  0  0  0  0  0  0  0  0  0  0  0
   -2.7177    4.1810   -3.5043 C   0  0  0  0  0  0  0  0  0  0  0  0
   -1.4639    2.0666   -3.5043 C   0  0  0  0  0  0  0  0  0  0  0  0
   -3.6508    4.7610   -3.5043 H   0  0  0  0  0  0  0  0  0  0  0  0
   -1.7972    4.7825   -3.5043 H   0  0  0  0  0  0  0  0  0  0  0  0
   -1.4473    0.8340   -3.5043 O   0  0  0  0  0  0  0  0  0  0  0  0
   -3.6409    2.2575   -3.5043 H   0  0  0  0  0  0  0  0  0  0  0  0
   -0.5188    2.6578   -3.5043 H   0  0  0  0  0  0  0  0  0  0  0  0
  1  2  2  0  0  0  0
  1  3  1  0  0  0  0
  1  7  1  0  0  0  0
  2  4  1  0  0  0  0
  2  5  1  0  0  0  0
  3  6  2  0  0  0  0
  3  8  1  0  0  0  0
M  END
