./000107-05-1.hin
 OpenBabel09251311033D

  9  8  0  0  0  0  0  0  0  0999 V2000
    1.7137    0.7304   -0.0000 Cl  0  0  0  0  0  0  0  0  0  0  0  0
    3.4072    4.3201   -0.0000 C   0  0  0  0  0  0  0  0  0  0  0  0
    3.1413    3.0153    0.0000 C   0  0  0  0  0  0  0  0  0  0  0  0
    1.7579    2.4861    0.0000 C   0  0  0  0  0  0  0  0  0  0  0  0
    4.4354    4.7048   -0.0000 H   0  0  0  0  0  0  0  0  0  0  0  0
    2.6236    5.0892   -0.0000 H   0  0  0  0  0  0  0  0  0  0  0  0
    3.9517    2.2668    0.0000 H   0  0  0  0  0  0  0  0  0  0  0  0
    1.2013    2.8138    0.9130 H   0  0  0  0  0  0  0  0  0  0  0  0
    1.2012    2.8138   -0.9130 H   0  0  0  0  0  0  0  0  0  0  0  0
  1  4  1  0  0  0  0
  2  3  2  0  0  0  0
  2  5  1  0  0  0  0
  2  6  1  0  0  0  0
  3  4  1  0  0  0  0
  3  7  1  0  0  0  0
  4  8  1  0  0  0  0
  4  9  1  0  0  0  0
M  END
