./000109-60-4.hin
 OpenBabel09251311033D

 17 16  0  0  0  0  0  0  0  0999 V2000
   -1.5976   -2.0391    0.0000 C   0  0  0  0  0  0  0  0  0  0  0  0
   -1.7788   -0.5439   -0.0000 C   0  0  0  0  0  0  0  0  0  0  0  0
   -3.2543   -0.1908    0.0000 C   0  0  0  0  0  0  0  0  0  0  0  0
   -3.3215    1.2457   -0.0000 O   0  0  0  0  0  0  0  0  0  0  0  0
   -4.5481    3.2889   -0.0000 C   0  0  0  0  0  0  0  0  0  0  0  0
   -4.5712    1.8004    0.0000 C   0  0  0  0  0  0  0  0  0  0  0  0
   -5.5466    1.0461    0.0000 O   0  0  0  0  0  0  0  0  0  0  0  0
   -0.5101   -2.2928   -0.0000 H   0  0  0  0  0  0  0  0  0  0  0  0
   -2.0667   -2.4951    0.9054 H   0  0  0  0  0  0  0  0  0  0  0  0
   -2.0667   -2.4951   -0.9054 H   0  0  0  0  0  0  0  0  0  0  0  0
   -1.2892   -0.0929   -0.9024 H   0  0  0  0  0  0  0  0  0  0  0  0
   -1.2892   -0.0929    0.9024 H   0  0  0  0  0  0  0  0  0  0  0  0
   -3.7766   -0.5775    0.9133 H   0  0  0  0  0  0  0  0  0  0  0  0
   -3.7766   -0.5776   -0.9133 H   0  0  0  0  0  0  0  0  0  0  0  0
   -3.5000    3.6738    0.0000 H   0  0  0  0  0  0  0  0  0  0  0  0
   -5.0812    3.6585   -0.9101 H   0  0  0  0  0  0  0  0  0  0  0  0
   -5.0812    3.6585    0.9101 H   0  0  0  0  0  0  0  0  0  0  0  0
  1  2  1  0  0  0  0
  1  8  1  0  0  0  0
  1  9  1  0  0  0  0
  1 10  1  0  0  0  0
  2  3  1  0  0  0  0
  2 11  1  0  0  0  0
  2 12  1  0  0  0  0
  3  4  1  0  0  0  0
  3 13  1  0  0  0  0
  3 14  1  0  0  0  0
  4  6  1  0  0  0  0
  5  6  1  0  0  0  0
  5 15  1  0  0  0  0
  5 16  1  0  0  0  0
  5 17  1  0  0  0  0
  6  7  2  0  0  0  0
M  END
