./000109-66-0.hin
 OpenBabel09251311033D

 17 16  0  0  0  0  0  0  0  0999 V2000
   -0.4813   -1.7963    0.0307 C   0  0  0  0  0  0  0  0  0  0  0  0
   -0.5103   -0.2898    0.0307 C   0  0  0  0  0  0  0  0  0  0  0  0
    0.5729   -2.1646    0.0307 H   0  0  0  0  0  0  0  0  0  0  0  0
   -0.9962   -2.2007    0.9356 H   0  0  0  0  0  0  0  0  0  0  0  0
   -0.9962   -2.2007   -0.8742 H   0  0  0  0  0  0  0  0  0  0  0  0
   -1.9288    0.2390    0.0307 C   0  0  0  0  0  0  0  0  0  0  0  0
    0.0326    0.0976    0.9332 H   0  0  0  0  0  0  0  0  0  0  0  0
   -1.9546    1.7527    0.0307 C   0  0  0  0  0  0  0  0  0  0  0  0
   -2.4730   -0.1458   -0.8717 H   0  0  0  0  0  0  0  0  0  0  0  0
   -3.3653    2.2822    0.0307 C   0  0  0  0  0  0  0  0  0  0  0  0
   -1.4083    2.1354    0.9332 H   0  0  0  0  0  0  0  0  0  0  0  0
   -1.4083    2.1354   -0.8717 H   0  0  0  0  0  0  0  0  0  0  0  0
    0.0326    0.0976   -0.8717 H   0  0  0  0  0  0  0  0  0  0  0  0
   -2.4730   -0.1458    0.9332 H   0  0  0  0  0  0  0  0  0  0  0  0
   -3.3611    3.3989    0.0307 H   0  0  0  0  0  0  0  0  0  0  0  0
   -3.9182    1.9315   -0.8742 H   0  0  0  0  0  0  0  0  0  0  0  0
   -3.9182    1.9315    0.9356 H   0  0  0  0  0  0  0  0  0  0  0  0
  1  2  1  0  0  0  0
  1  3  1  0  0  0  0
  1  4  1  0  0  0  0
  1  5  1  0  0  0  0
  2  6  1  0  0  0  0
  2  7  1  0  0  0  0
  2 13  1  0  0  0  0
  6  8  1  0  0  0  0
  6  9  1  0  0  0  0
  6 14  1  0  0  0  0
  8 10  1  0  0  0  0
  8 11  1  0  0  0  0
  8 12  1  0  0  0  0
 10 15  1  0  0  0  0
 10 16  1  0  0  0  0
 10 17  1  0  0  0  0
M  END
