./000109-97-7.hin
 OpenBabel09251311033D

 10 10  0  0  0  0  0  0  0  0999 V2000
   -1.2923   -0.6295   15.2385 C   0  0  0  0  0  0  0  0  0  0  0  0
    0.7879    0.2668   14.9522 C   0  0  0  0  0  0  0  0  0  0  0  0
   -0.1524    1.3063   14.9629 C   0  0  0  0  0  0  0  0  0  0  0  0
    0.0653   -0.9605   15.1269 C   0  0  0  0  0  0  0  0  0  0  0  0
   -1.4175    0.7530   15.1377 N   0  0  0  0  0  0  0  0  0  0  0  0
    1.8614    0.3700   14.8340 H   0  0  0  0  0  0  0  0  0  0  0  0
   -0.0111    2.3815   14.8601 H   0  0  0  0  0  0  0  0  0  0  0  0
    0.4907   -1.9577   15.1654 H   0  0  0  0  0  0  0  0  0  0  0  0
   -2.2620    1.2566   15.1826 H   0  0  0  0  0  0  0  0  0  0  0  0
   -2.1616   -1.2705   15.3801 H   0  0  0  0  0  0  0  0  0  0  0  0
  1  4  2  0  0  0  0
  1  5  1  0  0  0  0
  1 10  1  0  0  0  0
  2  3  2  0  0  0  0
  2  4  1  0  0  0  0
  2  6  1  0  0  0  0
  3  5  1  0  0  0  0
  3  7  1  0  0  0  0
  4  8  1  0  0  0  0
  5  9  1  0  0  0  0
M  END
