./000110-74-7.hin
 OpenBabel09251311033D

 14 13  0  0  0  0  0  0  0  0999 V2000
   -0.6949   -1.8155    0.0000 C   0  0  0  0  0  0  0  0  0  0  0  0
   -0.7970   -0.3132   -0.0000 C   0  0  0  0  0  0  0  0  0  0  0  0
   -2.2511    0.1218   -0.0000 C   0  0  0  0  0  0  0  0  0  0  0  0
    0.3784   -2.1248   -0.0000 H   0  0  0  0  0  0  0  0  0  0  0  0
   -1.1857   -2.2474    0.9057 H   0  0  0  0  0  0  0  0  0  0  0  0
   -1.1857   -2.2474   -0.9057 H   0  0  0  0  0  0  0  0  0  0  0  0
   -0.2853    0.1136   -0.9022 H   0  0  0  0  0  0  0  0  0  0  0  0
   -0.2853    0.1136    0.9022 H   0  0  0  0  0  0  0  0  0  0  0  0
   -2.2444    1.5561   -0.0000 O   0  0  0  0  0  0  0  0  0  0  0  0
   -2.7839   -0.2460   -0.9159 H   0  0  0  0  0  0  0  0  0  0  0  0
   -2.7839   -0.2460    0.9159 H   0  0  0  0  0  0  0  0  0  0  0  0
   -3.4822    2.1464   -0.0000 C   0  0  0  0  0  0  0  0  0  0  0  0
   -3.4434    3.3728   -0.0000 O   0  0  0  0  0  0  0  0  0  0  0  0
   -4.3762    1.4974    0.0000 H   0  0  0  0  0  0  0  0  0  0  0  0
  1  2  1  0  0  0  0
  1  4  1  0  0  0  0
  1  5  1  0  0  0  0
  1  6  1  0  0  0  0
  2  3  1  0  0  0  0
  2  7  1  0  0  0  0
  2  8  1  0  0  0  0
  3  9  1  0  0  0  0
  3 10  1  0  0  0  0
  3 11  1  0  0  0  0
  9 12  1  0  0  0  0
 12 13  2  0  0  0  0
 12 14  1  0  0  0  0
M  END
