./000112-31-2.hin
 OpenBabel09251311033D

 31 30  0  0  0  0  0  0  0  0999 V2000
    2.3039   -5.9951    0.0000 C   0  0  0  0  0  0  0  0  0  0  0  0
    2.2794   -4.4885    0.0000 C   0  0  0  0  0  0  0  0  0  0  0  0
    0.8621   -3.9560   -0.0000 C   0  0  0  0  0  0  0  0  0  0  0  0
    0.8421   -2.4426    0.0000 C   0  0  0  0  0  0  0  0  0  0  0  0
   -0.5757   -1.9123   -0.0000 C   0  0  0  0  0  0  0  0  0  0  0  0
   -0.5960   -0.3988    0.0000 C   0  0  0  0  0  0  0  0  0  0  0  0
   -2.0143    0.1300   -0.0000 C   0  0  0  0  0  0  0  0  0  0  0  0
   -2.0350    1.6436    0.0000 C   0  0  0  0  0  0  0  0  0  0  0  0
   -3.4532    2.1680   -0.0000 C   0  0  0  0  0  0  0  0  0  0  0  0
   -3.5010    3.6645    0.0000 C   0  0  0  0  0  0  0  0  0  0  0  0
   -4.5569    4.2985    0.0001 O   0  0  0  0  0  0  0  0  0  0  0  0
    3.3571   -6.3662    0.0000 H   0  0  0  0  0  0  0  0  0  0  0  0
    1.7879   -6.3980    0.9049 H   0  0  0  0  0  0  0  0  0  0  0  0
    1.7879   -6.3980   -0.9049 H   0  0  0  0  0  0  0  0  0  0  0  0
    2.8233   -4.1025    0.9025 H   0  0  0  0  0  0  0  0  0  0  0  0
    2.8233   -4.1025   -0.9025 H   0  0  0  0  0  0  0  0  0  0  0  0
    0.3171   -4.3397   -0.9026 H   0  0  0  0  0  0  0  0  0  0  0  0
    0.3171   -4.3397    0.9026 H   0  0  0  0  0  0  0  0  0  0  0  0
    1.3872   -2.0592    0.9026 H   0  0  0  0  0  0  0  0  0  0  0  0
    1.3872   -2.0592   -0.9026 H   0  0  0  0  0  0  0  0  0  0  0  0
   -1.1206   -2.2959   -0.9026 H   0  0  0  0  0  0  0  0  0  0  0  0
   -1.1206   -2.2959    0.9026 H   0  0  0  0  0  0  0  0  0  0  0  0
   -0.0512   -0.0152    0.9027 H   0  0  0  0  0  0  0  0  0  0  0  0
   -0.0511   -0.0152   -0.9027 H   0  0  0  0  0  0  0  0  0  0  0  0
   -2.5590   -0.2537   -0.9028 H   0  0  0  0  0  0  0  0  0  0  0  0
   -2.5590   -0.2537    0.9028 H   0  0  0  0  0  0  0  0  0  0  0  0
   -1.4899    2.0267    0.9030 H   0  0  0  0  0  0  0  0  0  0  0  0
   -1.4899    2.0267   -0.9030 H   0  0  0  0  0  0  0  0  0  0  0  0
   -4.0049    1.7888   -0.9023 H   0  0  0  0  0  0  0  0  0  0  0  0
   -4.0049    1.7888    0.9023 H   0  0  0  0  0  0  0  0  0  0  0  0
   -2.5148    4.1825   -0.0000 H   0  0  0  0  0  0  0  0  0  0  0  0
  1  2  1  0  0  0  0
  1 12  1  0  0  0  0
  1 13  1  0  0  0  0
  1 14  1  0  0  0  0
  2  3  1  0  0  0  0
  2 15  1  0  0  0  0
  2 16  1  0  0  0  0
  3  4  1  0  0  0  0
  3 17  1  0  0  0  0
  3 18  1  0  0  0  0
  4  5  1  0  0  0  0
  4 19  1  0  0  0  0
  4 20  1  0  0  0  0
  5  6  1  0  0  0  0
  5 21  1  0  0  0  0
  5 22  1  0  0  0  0
  6  7  1  0  0  0  0
  6 23  1  0  0  0  0
  6 24  1  0  0  0  0
  7  8  1  0  0  0  0
  7 25  1  0  0  0  0
  7 26  1  0  0  0  0
  8  9  1  0  0  0  0
  8 27  1  0  0  0  0
  8 28  1  0  0  0  0
  9 10  1  0  0  0  0
  9 29  1  0  0  0  0
  9 30  1  0  0  0  0
 10 11  2  0  0  0  0
 10 31  1  0  0  0  0
M  END
