./000115-10-6.hin
 OpenBabel09251311033D

  9  8  0  0  0  0  0  0  0  0999 V2000
   -2.5936   -0.0274    0.0000 C   0  0  0  0  0  0  0  0  0  0  0  0
   -2.6363    1.3892    0.0000 O   0  0  0  0  0  0  0  0  0  0  0  0
   -3.9577    1.9017   -0.0000 C   0  0  0  0  0  0  0  0  0  0  0  0
   -1.5033   -0.2760   -0.0000 H   0  0  0  0  0  0  0  0  0  0  0  0
   -3.0894   -0.4365    0.9149 H   0  0  0  0  0  0  0  0  0  0  0  0
   -3.0894   -0.4365   -0.9149 H   0  0  0  0  0  0  0  0  0  0  0  0
   -3.8286    3.0125    0.0000 H   0  0  0  0  0  0  0  0  0  0  0  0
   -4.5086    1.5706   -0.9149 H   0  0  0  0  0  0  0  0  0  0  0  0
   -4.5086    1.5706    0.9149 H   0  0  0  0  0  0  0  0  0  0  0  0
  1  2  1  0  0  0  0
  1  4  1  0  0  0  0
  1  5  1  0  0  0  0
  1  6  1  0  0  0  0
  2  3  1  0  0  0  0
  3  7  1  0  0  0  0
  3  8  1  0  0  0  0
  3  9  1  0  0  0  0
M  END
