./000124-19-6.hin
 OpenBabel09251311033D

 28 27  0  0  0  0  0  0  0  0999 V2000
    1.8866   -5.0734    0.0000 C   0  0  0  0  0  0  0  0  0  0  0  0
    1.8555   -3.5669    0.0000 C   0  0  0  0  0  0  0  0  0  0  0  0
    0.4360   -3.0403   -0.0000 C   0  0  0  0  0  0  0  0  0  0  0  0
    0.4106   -1.5270   -0.0000 C   0  0  0  0  0  0  0  0  0  0  0  0
   -1.0087   -1.0008   -0.0000 C   0  0  0  0  0  0  0  0  0  0  0  0
   -1.0311    0.5127   -0.0000 C   0  0  0  0  0  0  0  0  0  0  0  0
   -2.4498    1.0406   -0.0000 C   0  0  0  0  0  0  0  0  0  0  0  0
   -2.4672    2.5526    0.0000 C   0  0  0  0  0  0  0  0  0  0  0  0
   -3.8608    3.1000    0.0000 C   0  0  0  0  0  0  0  0  0  0  0  0
   -4.1035    4.3075   -0.0003 O   0  0  0  0  0  0  0  0  0  0  0  0
    2.9415   -5.4398    0.0000 H   0  0  0  0  0  0  0  0  0  0  0  0
    1.3724   -5.4786    0.9049 H   0  0  0  0  0  0  0  0  0  0  0  0
    1.3724   -5.4786   -0.9049 H   0  0  0  0  0  0  0  0  0  0  0  0
    2.3978   -3.1787    0.9025 H   0  0  0  0  0  0  0  0  0  0  0  0
    2.3978   -3.1787   -0.9025 H   0  0  0  0  0  0  0  0  0  0  0  0
   -0.1074   -3.4260   -0.9026 H   0  0  0  0  0  0  0  0  0  0  0  0
   -0.1074   -3.4260    0.9026 H   0  0  0  0  0  0  0  0  0  0  0  0
    0.9544   -1.1417    0.9026 H   0  0  0  0  0  0  0  0  0  0  0  0
    0.9544   -1.1417   -0.9026 H   0  0  0  0  0  0  0  0  0  0  0  0
   -1.5527   -1.3856   -0.9027 H   0  0  0  0  0  0  0  0  0  0  0  0
   -1.5527   -1.3857    0.9027 H   0  0  0  0  0  0  0  0  0  0  0  0
   -0.4869    0.8970    0.9028 H   0  0  0  0  0  0  0  0  0  0  0  0
   -0.4868    0.8970   -0.9028 H   0  0  0  0  0  0  0  0  0  0  0  0
   -2.9938    0.6560   -0.9031 H   0  0  0  0  0  0  0  0  0  0  0  0
   -2.9939    0.6560    0.9029 H   0  0  0  0  0  0  0  0  0  0  0  0
   -1.9247    2.9448    0.9023 H   0  0  0  0  0  0  0  0  0  0  0  0
   -1.9246    2.9449   -0.9022 H   0  0  0  0  0  0  0  0  0  0  0  0
   -4.6797    2.3449    0.0004 H   0  0  0  0  0  0  0  0  0  0  0  0
  1  2  1  0  0  0  0
  1 11  1  0  0  0  0
  1 12  1  0  0  0  0
  1 13  1  0  0  0  0
  2  3  1  0  0  0  0
  2 14  1  0  0  0  0
  2 15  1  0  0  0  0
  3  4  1  0  0  0  0
  3 16  1  0  0  0  0
  3 17  1  0  0  0  0
  4  5  1  0  0  0  0
  4 18  1  0  0  0  0
  4 19  1  0  0  0  0
  5  6  1  0  0  0  0
  5 20  1  0  0  0  0
  5 21  1  0  0  0  0
  6  7  1  0  0  0  0
  6 22  1  0  0  0  0
  6 23  1  0  0  0  0
  7  8  1  0  0  0  0
  7 24  1  0  0  0  0
  7 25  1  0  0  0  0
  8  9  1  0  0  0  0
  8 26  1  0  0  0  0
  8 27  1  0  0  0  0
  9 10  2  0  0  0  0
  9 28  1  0  0  0  0
M  END
