./000141-78-6.hin
 OpenBabel09251311033D

 14 13  0  0  0  0  0  0  0  0999 V2000
   -6.3085   -1.5059    0.0000 C   0  0  0  0  0  0  0  0  0  0  0  0
   -7.0347    0.8049   -0.0000 O   0  0  0  0  0  0  0  0  0  0  0  0
   -6.1253   -0.0282   -0.0000 C   0  0  0  0  0  0  0  0  0  0  0  0
   -4.8914    0.5729   -0.0000 O   0  0  0  0  0  0  0  0  0  0  0  0
   -3.7242   -0.2544    0.0000 C   0  0  0  0  0  0  0  0  0  0  0  0
   -2.5402    0.6857   -0.0000 C   0  0  0  0  0  0  0  0  0  0  0  0
   -5.3493   -2.0718   -0.0000 H   0  0  0  0  0  0  0  0  0  0  0  0
   -6.8978   -1.7935    0.9070 H   0  0  0  0  0  0  0  0  0  0  0  0
   -6.8978   -1.7935   -0.9070 H   0  0  0  0  0  0  0  0  0  0  0  0
   -3.7239   -0.8998    0.9178 H   0  0  0  0  0  0  0  0  0  0  0  0
   -3.7239   -0.8998   -0.9177 H   0  0  0  0  0  0  0  0  0  0  0  0
   -1.5993    0.0862    0.0000 H   0  0  0  0  0  0  0  0  0  0  0  0
   -2.5609    1.3394   -0.9046 H   0  0  0  0  0  0  0  0  0  0  0  0
   -2.5609    1.3394    0.9045 H   0  0  0  0  0  0  0  0  0  0  0  0
  1  3  1  0  0  0  0
  1  7  1  0  0  0  0
  1  8  1  0  0  0  0
  1  9  1  0  0  0  0
  2  3  2  0  0  0  0
  3  4  1  0  0  0  0
  4  5  1  0  0  0  0
  5  6  1  0  0  0  0
  5 10  1  0  0  0  0
  5 11  1  0  0  0  0
  6 12  1  0  0  0  0
  6 13  1  0  0  0  0
  6 14  1  0  0  0  0
M  END
