./000142-29-0.hin
 OpenBabel09251311033D

 13 13  0  0  0  0  0  0  0  0999 V2000
   -1.0655   -0.6731   -0.1073 C   0  0  0  0  0  0  0  0  0  0  0  0
   -1.0075    0.8372   -0.3793 C   0  0  0  0  0  0  0  0  0  0  0  0
    0.4405    1.2706   -0.1073 C   0  0  0  0  0  0  0  0  0  0  0  0
    1.1497    0.0159    0.3039 C   0  0  0  0  0  0  0  0  0  0  0  0
    0.3265   -1.0465    0.3040 C   0  0  0  0  0  0  0  0  0  0  0  0
   -1.3742   -1.2383   -1.0217 H   0  0  0  0  0  0  0  0  0  0  0  0
   -1.7965   -0.9110    0.7051 H   0  0  0  0  0  0  0  0  0  0  0  0
   -1.7150    1.3854    0.2884 H   0  0  0  0  0  0  0  0  0  0  0  0
   -1.2933    1.0587   -1.4357 H   0  0  0  0  0  0  0  0  0  0  0  0
    0.4883    2.0378    0.7051 H   0  0  0  0  0  0  0  0  0  0  0  0
    0.9106    1.7105   -1.0218 H   0  0  0  0  0  0  0  0  0  0  0  0
    2.2100    0.0328    0.5600 H   0  0  0  0  0  0  0  0  0  0  0  0
    0.5749   -2.0774    0.5601 H   0  0  0  0  0  0  0  0  0  0  0  0
  1  2  1  0  0  0  0
  1  5  1  0  0  0  0
  1  6  1  0  0  0  0
  1  7  1  0  0  0  0
  2  3  1  0  0  0  0
  2  8  1  0  0  0  0
  2  9  1  0  0  0  0
  3  4  1  0  0  0  0
  3 10  1  0  0  0  0
  3 11  1  0  0  0  0
  4  5  2  0  0  0  0
  4 12  1  0  0  0  0
  5 13  1  0  0  0  0
M  END
