./000142-82-5.hin
 OpenBabel09251311033D

 23 22  0  0  0  0  0  0  0  0999 V2000
  -52.4631   -6.1852   52.7578 C   0  0  0  0  0  0  0  0  0  0  0  0
  -57.1095   -0.3438   53.4328 C   0  0  0  0  0  0  0  0  0  0  0  0
  -52.5724   -4.6953   52.9546 C   0  0  0  0  0  0  0  0  0  0  0  0
  -55.6729   -0.7975   53.4052 C   0  0  0  0  0  0  0  0  0  0  0  0
  -54.0169   -4.2427   52.9821 C   0  0  0  0  0  0  0  0  0  0  0  0
  -55.5665   -2.2947   53.2071 C   0  0  0  0  0  0  0  0  0  0  0  0
  -54.1220   -2.7459   53.1799 C   0  0  0  0  0  0  0  0  0  0  0  0
  -53.5787   -2.2181   52.3522 H   0  0  0  0  0  0  0  0  0  0  0  0
  -53.6198   -2.4574   54.1409 H   0  0  0  0  0  0  0  0  0  0  0  0
  -56.0688   -2.5827   52.2462 H   0  0  0  0  0  0  0  0  0  0  0  0
  -56.1100   -2.8223   54.0348 H   0  0  0  0  0  0  0  0  0  0  0  0
  -54.5599   -4.7708   53.8098 H   0  0  0  0  0  0  0  0  0  0  0  0
  -54.5189   -4.5315   52.0211 H   0  0  0  0  0  0  0  0  0  0  0  0
  -55.1687   -0.5112   54.3660 H   0  0  0  0  0  0  0  0  0  0  0  0
  -55.1274   -0.2717   52.5774 H   0  0  0  0  0  0  0  0  0  0  0  0
  -52.0307   -4.1650   52.1272 H   0  0  0  0  0  0  0  0  0  0  0  0
  -52.0716   -4.4042   53.9157 H   0  0  0  0  0  0  0  0  0  0  0  0
  -57.1650    0.7618   53.5796 H   0  0  0  0  0  0  0  0  0  0  0  0
  -57.6220   -0.5984   52.4736 H   0  0  0  0  0  0  0  0  0  0  0  0
  -57.6635   -0.8387   54.2669 H   0  0  0  0  0  0  0  0  0  0  0  0
  -51.3909   -6.4971   52.7406 H   0  0  0  0  0  0  0  0  0  0  0  0
  -52.9760   -6.7311   53.5863 H   0  0  0  0  0  0  0  0  0  0  0  0
  -52.9350   -6.4913   51.7929 H   0  0  0  0  0  0  0  0  0  0  0  0
  1  3  1  0  0  0  0
  1 21  1  0  0  0  0
  1 22  1  0  0  0  0
  1 23  1  0  0  0  0
  2  4  1  0  0  0  0
  2 18  1  0  0  0  0
  2 19  1  0  0  0  0
  2 20  1  0  0  0  0
  3  5  1  0  0  0  0
  3 16  1  0  0  0  0
  3 17  1  0  0  0  0
  4  6  1  0  0  0  0
  4 14  1  0  0  0  0
  4 15  1  0  0  0  0
  5  7  1  0  0  0  0
  5 12  1  0  0  0  0
  5 13  1  0  0  0  0
  6  7  1  0  0  0  0
  6 10  1  0  0  0  0
  6 11  1  0  0  0  0
  7  8  1  0  0  0  0
  7  9  1  0  0  0  0
M  END
