./000352-93-2.hin
 OpenBabel09251311033D

 15 14  0  0  0  0  0  0  0  0999 V2000
   -1.5777    0.1574   15.0000 C   0  0  0  0  0  0  0  0  0  0  0  0
   -1.4584    1.9238   15.0000 S   0  0  0  0  0  0  0  0  0  0  0  0
   -3.1636    2.4002   15.0000 C   0  0  0  0  0  0  0  0  0  0  0  0
   -0.1832   -0.3953   15.0000 C   0  0  0  0  0  0  0  0  0  0  0  0
   -2.1399   -0.1882   15.9016 H   0  0  0  0  0  0  0  0  0  0  0  0
   -2.1399   -0.1882   14.0984 H   0  0  0  0  0  0  0  0  0  0  0  0
   -3.2198    3.8992   15.0000 C   0  0  0  0  0  0  0  0  0  0  0  0
   -3.6768    1.9854   14.0984 H   0  0  0  0  0  0  0  0  0  0  0  0
   -3.6768    1.9854   15.9016 H   0  0  0  0  0  0  0  0  0  0  0  0
   -4.2839    4.2424   15.0000 H   0  0  0  0  0  0  0  0  0  0  0  0
   -2.7161    4.3160   15.9065 H   0  0  0  0  0  0  0  0  0  0  0  0
   -2.7161    4.3160   14.0935 H   0  0  0  0  0  0  0  0  0  0  0  0
   -0.2143   -1.5129   15.0000 H   0  0  0  0  0  0  0  0  0  0  0  0
    0.3777   -0.0594   14.0935 H   0  0  0  0  0  0  0  0  0  0  0  0
    0.3777   -0.0593   15.9065 H   0  0  0  0  0  0  0  0  0  0  0  0
  1  2  1  0  0  0  0
  1  4  1  0  0  0  0
  1  5  1  0  0  0  0
  1  6  1  0  0  0  0
  2  3  1  0  0  0  0
  3  7  1  0  0  0  0
  3  8  1  0  0  0  0
  3  9  1  0  0  0  0
  4 13  1  0  0  0  0
  4 14  1  0  0  0  0
  4 15  1  0  0  0  0
  7 10  1  0  0  0  0
  7 11  1  0  0  0  0
  7 12  1  0  0  0  0
M  END
