./000464-06-2.hin
 OpenBabel09251311033D

 23 22  0  0  0  0  0  0  0  0999 V2000
    0.1794   -0.7347   -0.1736 C   0  0  0  0  0  0  0  0  0  0  0  0
   -1.3578    2.8172   -0.2032 C   0  0  0  0  0  0  0  0  0  0  0  0
   -1.2703    1.3049   -0.1500 C   0  0  0  0  0  0  0  0  0  0  0  0
   -2.0714    0.7987    1.0329 C   0  0  0  0  0  0  0  0  0  0  0  0
    0.1799    0.7906   -0.1526 C   0  0  0  0  0  0  0  0  0  0  0  0
    0.8925    1.2821   -1.4086 C   0  0  0  0  0  0  0  0  0  0  0  0
    0.9572    1.2624    1.0666 C   0  0  0  0  0  0  0  0  0  0  0  0
    1.2148   -1.1166   -0.3458 H   0  0  0  0  0  0  0  0  0  0  0  0
   -0.1834   -1.1429    0.7998 H   0  0  0  0  0  0  0  0  0  0  0  0
   -0.4797   -1.1129   -0.9908 H   0  0  0  0  0  0  0  0  0  0  0  0
   -0.8611    3.2138   -1.1205 H   0  0  0  0  0  0  0  0  0  0  0  0
   -2.4295    3.1337   -0.2234 H   0  0  0  0  0  0  0  0  0  0  0  0
   -0.8758    3.2774    0.6922 H   0  0  0  0  0  0  0  0  0  0  0  0
   -1.7540    0.9017   -1.0878 H   0  0  0  0  0  0  0  0  0  0  0  0
   -2.1094   -0.3167    1.0415 H   0  0  0  0  0  0  0  0  0  0  0  0
   -1.6282    1.1492    1.9955 H   0  0  0  0  0  0  0  0  0  0  0  0
   -3.1196    1.1819    0.9719 H   0  0  0  0  0  0  0  0  0  0  0  0
    1.8856    0.7808   -1.5077 H   0  0  0  0  0  0  0  0  0  0  0  0
    0.2855    1.0517   -2.3163 H   0  0  0  0  0  0  0  0  0  0  0  0
    1.0635    2.3840   -1.3600 H   0  0  0  0  0  0  0  0  0  0  0  0
    2.0015    0.8677    1.0249 H   0  0  0  0  0  0  0  0  0  0  0  0
    1.0036    2.3770    1.0991 H   0  0  0  0  0  0  0  0  0  0  0  0
    0.4798    0.8955    2.0063 H   0  0  0  0  0  0  0  0  0  0  0  0
  1  5  1  0  0  0  0
  1  8  1  0  0  0  0
  1  9  1  0  0  0  0
  1 10  1  0  0  0  0
  2  3  1  0  0  0  0
  2 11  1  0  0  0  0
  2 12  1  0  0  0  0
  2 13  1  0  0  0  0
  3  4  1  0  0  0  0
  3  5  1  0  0  0  0
  3 14  1  0  0  0  0
  4 15  1  0  0  0  0
  4 16  1  0  0  0  0
  4 17  1  0  0  0  0
  5  6  1  0  0  0  0
  5  7  1  0  0  0  0
  6 18  1  0  0  0  0
  6 19  1  0  0  0  0
  6 20  1  0  0  0  0
  7 21  1  0  0  0  0
  7 22  1  0  0  0  0
  7 23  1  0  0  0  0
M  END
