./000475-20-7.hin
 OpenBabel09251311033D

 39 41  0  0  1  0  0  0  0  0999 V2000
  -15.3674    5.9244    0.9903 C   0  0  0  0  0  0  0  0  0  0  0  0
  -15.4793    7.4703    0.9309 C   0  0  2  0  0  0  0  0  0  0  0  0
  -14.1045    5.6145    0.1612 C   0  0  0  0  0  0  0  0  0  0  0  0
  -13.6871    6.9990   -0.3887 C   0  0  1  0  0  0  0  0  0  0  0  0
  -14.7798    7.4648   -1.3982 C   0  0  2  0  0  0  0  0  0  0  0  0
  -15.9375    7.8070   -0.4677 C   0  0  0  0  0  0  0  0  0  0  0  0
  -15.2033    6.3624   -2.3619 C   0  0  0  0  0  0  0  0  0  0  0  0
  -14.3319    8.6486   -2.2509 C   0  0  0  0  0  0  0  0  0  0  0  0
  -17.1254    8.2900   -0.8136 C   0  0  0  0  0  0  0  0  0  0  0  0
  -13.9674    7.8542    0.8906 C   0  0  1  0  0  0  0  0  0  0  0  0
  -13.5823    9.3237    0.9541 C   0  0  0  0  0  0  0  0  0  0  0  0
  -12.0674    9.4137    1.1406 C   0  0  0  0  0  0  0  0  0  0  0  0
  -14.2382    9.9440    2.1900 C   0  0  0  0  0  0  0  0  0  0  0  0
  -14.0079   10.1528   -0.2539 C   0  0  0  0  0  0  0  0  0  0  0  0
  -13.4481    9.6657   -1.5695 C   0  0  0  0  0  0  0  0  0  0  0  0
  -16.2723    5.4384    0.5568 H   0  0  0  0  0  0  0  0  0  0  0  0
  -15.2510    5.5832    2.0457 H   0  0  0  0  0  0  0  0  0  0  0  0
  -16.0760    7.9191    1.7474 H   0  0  0  0  0  0  0  0  0  0  0  0
  -14.2954    4.8677   -0.6416 H   0  0  0  0  0  0  0  0  0  0  0  0
  -13.2939    5.2062    0.8136 H   0  0  0  0  0  0  0  0  0  0  0  0
  -12.6585    7.0451   -0.7905 H   0  0  0  0  0  0  0  0  0  0  0  0
  -15.8328    5.5973   -1.8471 H   0  0  0  0  0  0  0  0  0  0  0  0
  -15.8102    6.7974   -3.1937 H   0  0  0  0  0  0  0  0  0  0  0  0
  -14.3046    5.8638   -2.7969 H   0  0  0  0  0  0  0  0  0  0  0  0
  -15.2544    9.1628   -2.6355 H   0  0  0  0  0  0  0  0  0  0  0  0
  -13.7751    8.2524   -3.1439 H   0  0  0  0  0  0  0  0  0  0  0  0
  -17.9090    8.5019   -0.0754 H   0  0  0  0  0  0  0  0  0  0  0  0
  -17.3906    8.5040   -1.8570 H   0  0  0  0  0  0  0  0  0  0  0  0
  -13.4493    7.3737    1.7684 H   0  0  0  0  0  0  0  0  0  0  0  0
  -11.5358    8.7805    0.3910 H   0  0  0  0  0  0  0  0  0  0  0  0
  -11.7256   10.4699    1.0262 H   0  0  0  0  0  0  0  0  0  0  0  0
  -11.7832    9.0578    2.1605 H   0  0  0  0  0  0  0  0  0  0  0  0
  -14.0223    9.3291    3.0960 H   0  0  0  0  0  0  0  0  0  0  0  0
  -13.8405   10.9740    2.3550 H   0  0  0  0  0  0  0  0  0  0  0  0
  -15.3443   10.0076    2.0568 H   0  0  0  0  0  0  0  0  0  0  0  0
  -13.6690   11.2103   -0.0822 H   0  0  0  0  0  0  0  0  0  0  0  0
  -15.1299   10.1680   -0.3078 H   0  0  0  0  0  0  0  0  0  0  0  0
  -12.4220    9.2377   -1.4216 H   0  0  0  0  0  0  0  0  0  0  0  0
  -13.3343   10.5436   -2.2628 H   0  0  0  0  0  0  0  0  0  0  0  0
  1  2  1  0  0  0  0
  1  3  1  0  0  0  0
  1 16  1  0  0  0  0
  1 17  1  0  0  0  0
  2  6  1  0  0  0  0
  2 10  1  0  0  0  0
  2 18  1  1  0  0  0
  3  4  1  0  0  0  0
  3 19  1  0  0  0  0
  3 20  1  0  0  0  0
  4  5  1  0  0  0  0
  4 10  1  0  0  0  0
  4 21  1  6  0  0  0
  5  6  1  0  0  0  0
  5  7  1  6  0  0  0
  5  8  1  0  0  0  0
  6  9  2  0  0  0  0
  7 22  1  0  0  0  0
  7 23  1  0  0  0  0
  7 24  1  0  0  0  0
  8 15  1  0  0  0  0
  8 25  1  0  0  0  0
  8 26  1  0  0  0  0
  9 27  1  0  0  0  0
  9 28  1  0  0  0  0
 10 11  1  0  0  0  0
 10 29  1  1  0  0  0
 11 12  1  0  0  0  0
 11 13  1  0  0  0  0
 11 14  1  0  0  0  0
 12 30  1  0  0  0  0
 12 31  1  0  0  0  0
 12 32  1  0  0  0  0
 13 33  1  0  0  0  0
 13 34  1  0  0  0  0
 13 35  1  0  0  0  0
 14 15  1  0  0  0  0
 14 36  1  0  0  0  0
 14 37  1  0  0  0  0
 15 38  1  0  0  0  0
 15 39  1  0  0  0  0
M  END
