./000496-11-7.hin
 OpenBabel09251311033D

 19 20  0  0  0  0  0  0  0  0999 V2000
   -6.3228    0.4844   -0.0619 C   0  0  0  0  0  0  0  0  0  0  0  0
   -6.3228    1.8767   -0.0617 C   0  0  0  0  0  0  0  0  0  0  0  0
   -5.1184    2.5921   -0.0319 C   0  0  0  0  0  0  0  0  0  0  0  0
   -3.9255    1.8882   -0.0041 C   0  0  0  0  0  0  0  0  0  0  0  0
   -3.9255    0.4729   -0.0042 C   0  0  0  0  0  0  0  0  0  0  0  0
   -5.1184   -0.2309   -0.0321 C   0  0  0  0  0  0  0  0  0  0  0  0
   -2.5315   -0.0580    0.0291 C   0  0  0  0  0  0  0  0  0  0  0  0
   -2.5315    2.4191    0.0292 C   0  0  0  0  0  0  0  0  0  0  0  0
   -1.6259    1.1805    0.0994 C   0  0  0  0  0  0  0  0  0  0  0  0
   -7.2763   -0.0631   -0.0843 H   0  0  0  0  0  0  0  0  0  0  0  0
   -7.2763    2.4243   -0.0841 H   0  0  0  0  0  0  0  0  0  0  0  0
   -5.1249    3.6908   -0.0296 H   0  0  0  0  0  0  0  0  0  0  0  0
   -5.1249   -1.3297   -0.0300 H   0  0  0  0  0  0  0  0  0  0  0  0
   -2.3154   -0.6593   -0.8900 H   0  0  0  0  0  0  0  0  0  0  0  0
   -2.3765   -0.7219    0.9160 H   0  0  0  0  0  0  0  0  0  0  0  0
   -2.3765    3.0829    0.9162 H   0  0  0  0  0  0  0  0  0  0  0  0
   -2.3153    3.0204   -0.8899 H   0  0  0  0  0  0  0  0  0  0  0  0
   -1.0439    1.1805    1.0531 H   0  0  0  0  0  0  0  0  0  0  0  0
   -0.8961    1.1805   -0.7460 H   0  0  0  0  0  0  0  0  0  0  0  0
  1  2  2  0  0  0  0
  1  6  1  0  0  0  0
  1 10  1  0  0  0  0
  2  3  1  0  0  0  0
  2 11  1  0  0  0  0
  3  4  2  0  0  0  0
  3 12  1  0  0  0  0
  4  5  1  0  0  0  0
  4  8  1  0  0  0  0
  5  6  2  0  0  0  0
  5  7  1  0  0  0  0
  6 13  1  0  0  0  0
  7  9  1  0  0  0  0
  7 14  1  0  0  0  0
  7 15  1  0  0  0  0
  8  9  1  0  0  0  0
  8 16  1  0  0  0  0
  8 17  1  0  0  0  0
  9 18  1  0  0  0  0
  9 19  1  0  0  0  0
M  END
