./000503-17-3.hin
 OpenBabel09251311033D

 10  9  0  0  0  0  0  0  0  0999 V2000
   -3.9982   -0.6306    0.0000 C   0  0  0  0  0  0  0  0  0  0  0  0
   -3.9982    0.7947    0.0000 C   0  0  0  0  0  0  0  0  0  0  0  0
   -3.9982    1.9926   -0.0000 C   0  0  0  0  0  0  0  0  0  0  0  0
   -3.9982    3.4179   -0.0000 C   0  0  0  0  0  0  0  0  0  0  0  0
   -2.9484   -1.0242   -0.0000 H   0  0  0  0  0  0  0  0  0  0  0  0
   -4.5231   -1.0242    0.9092 H   0  0  0  0  0  0  0  0  0  0  0  0
   -4.5231   -1.0242   -0.9091 H   0  0  0  0  0  0  0  0  0  0  0  0
   -2.9484    3.8115    0.0000 H   0  0  0  0  0  0  0  0  0  0  0  0
   -4.5231    3.8115   -0.9092 H   0  0  0  0  0  0  0  0  0  0  0  0
   -4.5231    3.8115    0.9091 H   0  0  0  0  0  0  0  0  0  0  0  0
  1  2  1  0  0  0  0
  1  5  1  0  0  0  0
  1  6  1  0  0  0  0
  1  7  1  0  0  0  0
  2  3  3  0  0  0  0
  3  4  1  0  0  0  0
  4  8  1  0  0  0  0
  4  9  1  0  0  0  0
  4 10  1  0  0  0  0
M  END
