./000513-20-2.hin
 OpenBabel09251311033D

 24 25  0  0  1  0  0  0  0  0999 V2000
   -1.9306   -1.2969   -0.5636 C   0  0  0  0  0  0  0  0  0  0  0  0
   -1.5273   -1.1867   -2.0231 C   0  0  0  0  0  0  0  0  0  0  0  0
   -3.4274   -1.1012   -0.4295 C   0  0  0  0  0  0  0  0  0  0  0  0
   -1.1351   -0.3474    0.2825 C   0  0  1  0  0  0  0  0  0  0  0  0
    0.2913   -0.7757    0.5830 C   0  0  0  0  0  0  0  0  0  0  0  0
    1.1526    0.4866    0.5915 C   0  0  0  0  0  0  0  0  0  0  0  0
    0.2565    1.6571    0.2467 C   0  0  0  0  0  0  0  0  0  0  0  0
   -1.1466    1.1695    0.1034 C   0  0  2  0  0  0  0  0  0  0  0  0
   -1.7602    0.5419    1.3267 C   0  0  0  0  0  0  0  0  0  0  0  0
    0.6375    2.8153    0.0898 O   0  0  0  0  0  0  0  0  0  0  0  0
   -1.6870   -2.3418   -0.2089 H   0  0  0  0  0  0  0  0  0  0  0  0
   -0.4353   -1.3831   -2.1459 H   0  0  0  0  0  0  0  0  0  0  0  0
   -2.0931   -1.9304   -2.6342 H   0  0  0  0  0  0  0  0  0  0  0  0
   -1.7488   -0.1635   -2.4118 H   0  0  0  0  0  0  0  0  0  0  0  0
   -3.9650   -1.8056   -1.1097 H   0  0  0  0  0  0  0  0  0  0  0  0
   -3.7590   -1.3018    0.6175 H   0  0  0  0  0  0  0  0  0  0  0  0
   -3.7148   -0.0574   -0.7036 H   0  0  0  0  0  0  0  0  0  0  0  0
    0.6540   -1.4911   -0.1973 H   0  0  0  0  0  0  0  0  0  0  0  0
    0.3370   -1.2958    1.5723 H   0  0  0  0  0  0  0  0  0  0  0  0
    1.9806    0.4160   -0.1578 H   0  0  0  0  0  0  0  0  0  0  0  0
    1.6158    0.6574    1.5959 H   0  0  0  0  0  0  0  0  0  0  0  0
   -1.7760    1.6879   -0.6358 H   0  0  0  0  0  0  0  0  0  0  0  0
   -2.8600    0.5740    1.4272 H   0  0  0  0  0  0  0  0  0  0  0  0
   -1.2527    0.6518    2.3026 H   0  0  0  0  0  0  0  0  0  0  0  0
  1  2  1  0  0  0  0
  1  3  1  0  0  0  0
  1 11  1  0  0  0  0
  2 12  1  0  0  0  0
  2 13  1  0  0  0  0
  2 14  1  0  0  0  0
  3 15  1  0  0  0  0
  3 16  1  0  0  0  0
  3 17  1  0  0  0  0
  4  1  1  6  0  0  0
  4  5  1  0  0  0  0
  4  8  1  0  0  0  0
  4  9  1  0  0  0  0
  5  6  1  0  0  0  0
  5 18  1  0  0  0  0
  5 19  1  0  0  0  0
  6  7  1  0  0  0  0
  6 20  1  0  0  0  0
  6 21  1  0  0  0  0
  7  8  1  0  0  0  0
  7 10  2  0  0  0  0
  8  9  1  0  0  0  0
  8 22  1  6  0  0  0
  9 23  1  0  0  0  0
  9 24  1  0  0  0  0
M  END
