./000513-35-9.hin
 OpenBabel09251311033D

 15 14  0  0  0  0  0  0  0  0999 V2000
   -3.0853   -0.8942    0.1112 C   0  0  0  0  0  0  0  0  0  0  0  0
   -1.8896    1.3023   -0.1240 C   0  0  0  0  0  0  0  0  0  0  0  0
   -3.1805    0.5798   -0.0220 C   0  0  0  0  0  0  0  0  0  0  0  0
   -4.3565    1.2273   -0.0438 C   0  0  0  0  0  0  0  0  0  0  0  0
   -5.6713    0.5652    0.0481 C   0  0  0  0  0  0  0  0  0  0  0  0
   -2.0521   -1.2548   -0.1143 H   0  0  0  0  0  0  0  0  0  0  0  0
   -3.3463   -1.2042    1.1547 H   0  0  0  0  0  0  0  0  0  0  0  0
   -3.7972   -1.4002   -0.5880 H   0  0  0  0  0  0  0  0  0  0  0  0
   -1.3440    0.9832   -1.0473 H   0  0  0  0  0  0  0  0  0  0  0  0
   -2.0370    2.4091   -0.1667 H   0  0  0  0  0  0  0  0  0  0  0  0
   -1.2463    1.0651    0.7600 H   0  0  0  0  0  0  0  0  0  0  0  0
   -4.3836    2.3248   -0.1452 H   0  0  0  0  0  0  0  0  0  0  0  0
   -6.4466    1.2752    0.4274 H   0  0  0  0  0  0  0  0  0  0  0  0
   -5.9917    0.2040   -0.9624 H   0  0  0  0  0  0  0  0  0  0  0  0
   -5.6358   -0.3175    0.7349 H   0  0  0  0  0  0  0  0  0  0  0  0
  1  3  1  0  0  0  0
  1  6  1  0  0  0  0
  1  7  1  0  0  0  0
  1  8  1  0  0  0  0
  2  3  1  0  0  0  0
  2  9  1  0  0  0  0
  2 10  1  0  0  0  0
  2 11  1  0  0  0  0
  3  4  2  0  0  0  0
  4  5  1  0  0  0  0
  4 12  1  0  0  0  0
  5 13  1  0  0  0  0
  5 14  1  0  0  0  0
  5 15  1  0  0  0  0
M  END
