./000554-12-1.hin
 OpenBabel09251311033D

 14 13  0  0  0  0  0  0  0  0999 V2000
   -0.4836    2.6439   30.1019 C   0  0  0  0  0  0  0  0  0  0  0  0
   -0.6258    4.1326   30.1587 C   0  0  0  0  0  0  0  0  0  0  0  0
    0.6623    4.8262   29.8009 C   0  0  0  0  0  0  0  0  0  0  0  0
    0.4301    1.9590   29.6394 O   0  0  0  0  0  0  0  0  0  0  0  0
   -1.5589    1.9944   30.6500 O   0  0  0  0  0  0  0  0  0  0  0  0
   -1.5264    0.5677   30.6315 C   0  0  0  0  0  0  0  0  0  0  0  0
   -2.4953    0.2742   31.1053 H   0  0  0  0  0  0  0  0  0  0  0  0
   -1.4570    0.2008   29.5792 H   0  0  0  0  0  0  0  0  0  0  0  0
   -0.6535    0.1997   31.2222 H   0  0  0  0  0  0  0  0  0  0  0  0
   -0.9599    4.4218   31.1907 H   0  0  0  0  0  0  0  0  0  0  0  0
   -1.4433    4.4245   29.4456 H   0  0  0  0  0  0  0  0  0  0  0  0
    0.5085    5.9320   29.7979 H   0  0  0  0  0  0  0  0  0  0  0  0
    1.4625    4.5761   30.5388 H   0  0  0  0  0  0  0  0  0  0  0  0
    1.0126    4.5058   28.7895 H   0  0  0  0  0  0  0  0  0  0  0  0
  1  2  1  0  0  0  0
  1  4  2  0  0  0  0
  1  5  1  0  0  0  0
  2  3  1  0  0  0  0
  2 10  1  0  0  0  0
  2 11  1  0  0  0  0
  3 12  1  0  0  0  0
  3 13  1  0  0  0  0
  3 14  1  0  0  0  0
  5  6  1  0  0  0  0
  6  7  1  0  0  0  0
  6  8  1  0  0  0  0
  6  9  1  0  0  0  0
M  END
