./000554-61-0.hin
 OpenBabel09251311033D

 26 27  0  0  1  0  0  0  0  0999 V2000
    0.0370   -2.6143    8.0100 C   0  0  0  0  0  0  0  0  0  0  0  0
   -0.6475   -4.1627    6.0886 C   0  0  1  0  0  0  0  0  0  0  0  0
   -1.8536   -3.3208    6.4271 C   0  0  2  0  0  0  0  0  0  0  0  0
   -2.7259   -2.9184    5.3247 C   0  0  0  0  0  0  0  0  0  0  0  0
   -2.4109   -3.1336    4.0361 C   0  0  0  0  0  0  0  0  0  0  0  0
   -1.1057   -3.7164    3.6184 C   0  0  0  0  0  0  0  0  0  0  0  0
   -0.4127   -4.5661    4.6691 C   0  0  0  0  0  0  0  0  0  0  0  0
    0.6922   -4.5565    4.4655 H   0  0  0  0  0  0  0  0  0  0  0  0
   -0.4283   -2.8651    3.3274 H   0  0  0  0  0  0  0  0  0  0  0  0
   -1.2550   -4.3406    2.6956 H   0  0  0  0  0  0  0  0  0  0  0  0
   -3.3288   -2.7761    2.9287 C   0  0  0  0  0  0  0  0  0  0  0  0
   -0.4521   -2.7505    6.5993 C   0  0  0  0  0  0  0  0  0  0  0  0
    0.0613   -1.6703    5.7044 C   0  0  0  0  0  0  0  0  0  0  0  0
   -0.3430   -1.6635    8.4575 H   0  0  0  0  0  0  0  0  0  0  0  0
    1.1542   -2.5934    8.0262 H   0  0  0  0  0  0  0  0  0  0  0  0
   -0.3103   -3.4657    8.6445 H   0  0  0  0  0  0  0  0  0  0  0  0
   -0.3748   -4.9773    6.7930 H   0  0  0  0  0  0  0  0  0  0  0  0
   -2.4110   -3.5475    7.3595 H   0  0  0  0  0  0  0  0  0  0  0  0
   -3.6830   -2.4537    5.6093 H   0  0  0  0  0  0  0  0  0  0  0  0
   -0.7611   -5.6294    4.5556 H   0  0  0  0  0  0  0  0  0  0  0  0
   -3.6841   -3.7034    2.4127 H   0  0  0  0  0  0  0  0  0  0  0  0
   -4.2214   -2.2155    3.2995 H   0  0  0  0  0  0  0  0  0  0  0  0
   -2.7984   -2.1405    2.1763 H   0  0  0  0  0  0  0  0  0  0  0  0
   -0.7172   -1.3580    4.9648 H   0  0  0  0  0  0  0  0  0  0  0  0
    0.3555   -0.7707    6.2993 H   0  0  0  0  0  0  0  0  0  0  0  0
    0.9586   -2.0315    5.1434 H   0  0  0  0  0  0  0  0  0  0  0  0
  1 12  1  0  0  0  0
  1 14  1  0  0  0  0
  1 15  1  0  0  0  0
  1 16  1  0  0  0  0
  2  3  1  0  0  0  0
  2  7  1  0  0  0  0
  2 12  1  0  0  0  0
  2 17  1  1  0  0  0
  3  4  1  0  0  0  0
  3 12  1  0  0  0  0
  3 18  1  1  0  0  0
  4  5  2  0  0  0  0
  4 19  1  0  0  0  0
  5  6  1  0  0  0  0
  5 11  1  0  0  0  0
  6  7  1  0  0  0  0
  6  9  1  0  0  0  0
  6 10  1  0  0  0  0
  7  8  1  0  0  0  0
  7 20  1  0  0  0  0
 11 21  1  0  0  0  0
 11 22  1  0  0  0  0
 11 23  1  0  0  0  0
 12 13  1  0  0  0  0
 13 24  1  0  0  0  0
 13 25  1  0  0  0  0
 13 26  1  0  0  0  0
M  END
