./000760-21-4.hin
 OpenBabel09251311033D

 18 17  0  0  0  0  0  0  0  0999 V2000
    0.5861   -1.9399    0.0000 C   0  0  0  0  0  0  0  0  0  0  0  0
    0.3467   -0.4525    0.0000 C   0  0  0  0  0  0  0  0  0  0  0  0
   -1.0891   -0.0442    0.0000 C   0  0  0  0  0  0  0  0  0  0  0  0
   -1.2692    1.4375    0.0000 C   0  0  0  0  0  0  0  0  0  0  0  0
   -2.7014    1.9052   -0.0000 C   0  0  0  0  0  0  0  0  0  0  0  0
   -2.1038   -0.9117   -0.0000 C   0  0  0  0  0  0  0  0  0  0  0  0
    1.6840   -2.1472    0.0000 H   0  0  0  0  0  0  0  0  0  0  0  0
    0.1390   -2.4159    0.9060 H   0  0  0  0  0  0  0  0  0  0  0  0
    0.1390   -2.4159   -0.9060 H   0  0  0  0  0  0  0  0  0  0  0  0
    0.8421   -0.0008    0.9035 H   0  0  0  0  0  0  0  0  0  0  0  0
    0.8421   -0.0008   -0.9035 H   0  0  0  0  0  0  0  0  0  0  0  0
   -0.7460    1.8568    0.9035 H   0  0  0  0  0  0  0  0  0  0  0  0
   -0.7460    1.8568   -0.9035 H   0  0  0  0  0  0  0  0  0  0  0  0
   -2.7355    3.0220   -0.0000 H   0  0  0  0  0  0  0  0  0  0  0  0
   -3.2411    1.5376   -0.9060 H   0  0  0  0  0  0  0  0  0  0  0  0
   -3.2411    1.5376    0.9060 H   0  0  0  0  0  0  0  0  0  0  0  0
   -3.1548   -0.5955   -0.0000 H   0  0  0  0  0  0  0  0  0  0  0  0
   -1.9548   -1.9991   -0.0000 H   0  0  0  0  0  0  0  0  0  0  0  0
  1  2  1  0  0  0  0
  1  7  1  0  0  0  0
  1  8  1  0  0  0  0
  1  9  1  0  0  0  0
  2  3  1  0  0  0  0
  2 10  1  0  0  0  0
  2 11  1  0  0  0  0
  3  4  1  0  0  0  0
  3  6  2  0  0  0  0
  4  5  1  0  0  0  0
  4 12  1  0  0  0  0
  4 13  1  0  0  0  0
  5 14  1  0  0  0  0
  5 15  1  0  0  0  0
  5 16  1  0  0  0  0
  6 17  1  0  0  0  0
  6 18  1  0  0  0  0
M  END
