./001135-66-6.hin
 OpenBabel09251311033D

 39 41  0  0  1  0  0  0  0  0999 V2000
   -2.2873   -2.0811   -1.1741 C   0  0  0  0  0  0  0  0  0  0  0  0
   -1.5875   -1.5465    0.0645 C   0  0  0  0  0  0  0  0  0  0  0  0
   -2.2415   -2.1496    1.2927 C   0  0  0  0  0  0  0  0  0  0  0  0
   -1.6091   -0.0298    0.1010 C   0  0  0  0  0  0  0  0  0  0  0  0
   -0.1661    0.4474    0.0102 C   0  0  1  0  0  0  0  0  0  0  0  0
    0.4821    0.0743    1.3724 C   0  0  0  0  0  0  0  0  0  0  0  0
    0.5957   -1.4606    1.3232 C   0  0  0  0  0  0  0  0  0  0  0  0
   -0.0543   -1.8350   -0.0209 C   0  0  2  0  0  0  0  0  0  0  0  0
    0.4403   -0.6577   -0.9060 C   0  0  0  0  0  0  0  0  0  0  0  0
   -0.0533    1.8985   -0.4296 C   0  0  0  0  0  0  0  0  0  0  0  0
   -1.0852    2.7257    0.3492 C   0  0  0  0  0  0  0  0  0  0  0  0
   -2.5140    2.2614    0.1385 C   0  0  0  0  0  0  0  0  0  0  0  0
   -2.6611    0.7851    0.1744 C   0  0  0  0  0  0  0  0  0  0  0  0
   -0.3246    2.0161   -1.9258 C   0  0  0  0  0  0  0  0  0  0  0  0
    1.3334    2.4655   -0.1539 C   0  0  0  0  0  0  0  0  0  0  0  0
   -3.3560   -1.7563   -1.1799 H   0  0  0  0  0  0  0  0  0  0  0  0
   -1.8007   -1.7054   -2.1051 H   0  0  0  0  0  0  0  0  0  0  0  0
   -2.2507   -3.1972   -1.1783 H   0  0  0  0  0  0  0  0  0  0  0  0
   -1.9256   -3.2135    1.4124 H   0  0  0  0  0  0  0  0  0  0  0  0
   -1.9650   -1.5827    2.2140 H   0  0  0  0  0  0  0  0  0  0  0  0
   -3.3538   -2.1156    1.1896 H   0  0  0  0  0  0  0  0  0  0  0  0
   -0.1542    0.4145    2.2225 H   0  0  0  0  0  0  0  0  0  0  0  0
    1.4915    0.5381    1.4735 H   0  0  0  0  0  0  0  0  0  0  0  0
    0.0947   -1.9473    2.1910 H   0  0  0  0  0  0  0  0  0  0  0  0
    1.6679   -1.7763    1.3270 H   0  0  0  0  0  0  0  0  0  0  0  0
    0.1835   -2.8519   -0.3838 H   0  0  0  0  0  0  0  0  0  0  0  0
    0.0082   -0.6600   -1.9295 H   0  0  0  0  0  0  0  0  0  0  0  0
    1.5489   -0.5993   -0.9680 H   0  0  0  0  0  0  0  0  0  0  0  0
   -0.9963    3.8003    0.0429 H   0  0  0  0  0  0  0  0  0  0  0  0
   -0.8349    2.6611    1.4414 H   0  0  0  0  0  0  0  0  0  0  0  0
   -2.8856    2.6298   -0.8575 H   0  0  0  0  0  0  0  0  0  0  0  0
   -3.1682    2.7232    0.9262 H   0  0  0  0  0  0  0  0  0  0  0  0
   -3.6897    0.3993    0.2396 H   0  0  0  0  0  0  0  0  0  0  0  0
   -1.2785    1.4990   -2.1892 H   0  0  0  0  0  0  0  0  0  0  0  0
   -0.4062    3.0906   -2.2177 H   0  0  0  0  0  0  0  0  0  0  0  0
    0.5078    1.5506   -2.5062 H   0  0  0  0  0  0  0  0  0  0  0  0
    2.1174    1.7741   -0.5462 H   0  0  0  0  0  0  0  0  0  0  0  0
    1.4465    3.4563   -0.6569 H   0  0  0  0  0  0  0  0  0  0  0  0
    1.4950    2.6099    0.9412 H   0  0  0  0  0  0  0  0  0  0  0  0
  1  2  1  0  0  0  0
  1 16  1  0  0  0  0
  1 17  1  0  0  0  0
  1 18  1  0  0  0  0
  2  3  1  0  0  0  0
  2  4  1  0  0  0  0
  2  8  1  0  0  0  0
  3 19  1  0  0  0  0
  3 20  1  0  0  0  0
  3 21  1  0  0  0  0
  4 13  2  0  0  0  0
  5  4  1  1  0  0  0
  5  6  1  0  0  0  0
  5  9  1  0  0  0  0
  5 10  1  0  0  0  0
  6  7  1  0  0  0  0
  6 22  1  0  0  0  0
  6 23  1  0  0  0  0
  7  8  1  0  0  0  0
  7 24  1  0  0  0  0
  7 25  1  0  0  0  0
  8  9  1  0  0  0  0
  8 26  1  6  0  0  0
  9 27  1  0  0  0  0
  9 28  1  0  0  0  0
 10 11  1  0  0  0  0
 10 14  1  0  0  0  0
 10 15  1  0  0  0  0
 11 12  1  0  0  0  0
 11 29  1  0  0  0  0
 11 30  1  0  0  0  0
 12 13  1  0  0  0  0
 12 31  1  0  0  0  0
 12 32  1  0  0  0  0
 13 33  1  0  0  0  0
 14 34  1  0  0  0  0
 14 35  1  0  0  0  0
 14 36  1  0  0  0  0
 15 37  1  0  0  0  0
 15 38  1  0  0  0  0
 15 39  1  0  0  0  0
M  END
