./001528-30-9.hin
 OpenBabel09251311033D

 16 16  0  0  0  0  0  0  0  0999 V2000
   -2.2751   -0.8968   -0.3114 C   0  0  0  0  0  0  0  0  0  0  0  0
   -2.1614    0.5882   -0.6387 C   0  0  0  0  0  0  0  0  0  0  0  0
   -0.7249    1.0140   -0.3516 C   0  0  0  0  0  0  0  0  0  0  0  0
   -0.0404   -0.1547    0.2798 C   0  0  0  0  0  0  0  0  0  0  0  0
   -0.9693   -1.3231    0.3521 C   0  0  0  0  0  0  0  0  0  0  0  0
    1.2175   -0.1550    0.7159 C   0  0  0  0  0  0  0  0  0  0  0  0
   -2.4464   -1.4889   -1.2451 H   0  0  0  0  0  0  0  0  0  0  0  0
   -3.1430   -1.0866    0.3674 H   0  0  0  0  0  0  0  0  0  0  0  0
   -2.8736    1.1804   -0.0112 H   0  0  0  0  0  0  0  0  0  0  0  0
   -2.4229    0.7782   -1.7089 H   0  0  0  0  0  0  0  0  0  0  0  0
   -0.6994    1.9015    0.3308 H   0  0  0  0  0  0  0  0  0  0  0  0
   -0.1997    1.3038   -1.2979 H   0  0  0  0  0  0  0  0  0  0  0  0
   -1.1425   -1.6128    1.4205 H   0  0  0  0  0  0  0  0  0  0  0  0
   -0.5273   -2.2108   -0.1681 H   0  0  0  0  0  0  0  0  0  0  0  0
    1.8629    0.7293    0.6445 H   0  0  0  0  0  0  0  0  0  0  0  0
    1.6798   -1.0394    1.1714 H   0  0  0  0  0  0  0  0  0  0  0  0
  1  2  1  0  0  0  0
  1  5  1  0  0  0  0
  1  7  1  0  0  0  0
  1  8  1  0  0  0  0
  2  3  1  0  0  0  0
  2  9  1  0  0  0  0
  2 10  1  0  0  0  0
  3  4  1  0  0  0  0
  3 11  1  0  0  0  0
  3 12  1  0  0  0  0
  4  5  1  0  0  0  0
  4  6  2  0  0  0  0
  5 13  1  0  0  0  0
  5 14  1  0  0  0  0
  6 15  1  0  0  0  0
  6 16  1  0  0  0  0
M  END
