./002505-03-5.hin
 OpenBabel09251311033D

 22 22  0  0  0  0  0  0  0  0999 V2000
   -2.7802   -0.4797    0.1715 C   0  0  0  0  0  0  0  0  0  0  0  0
   -2.6814    1.0278    0.0709 C   0  0  0  0  0  0  0  0  0  0  0  0
   -1.2786    1.5703   -0.1004 C   0  0  0  0  0  0  0  0  0  0  0  0
   -0.4013    0.7385   -1.0175 C   0  0  0  0  0  0  0  0  0  0  0  0
    0.3329   -0.3258   -0.2731 C   0  0  0  0  0  0  0  0  0  0  0  0
   -0.4664   -1.4965    0.1861 C   0  0  0  0  0  0  0  0  0  0  0  0
   -1.6875   -1.1180    1.0028 C   0  0  0  0  0  0  0  0  0  0  0  0
    1.6492   -0.2469   -0.0531 C   0  0  0  0  0  0  0  0  0  0  0  0
   -2.7698   -0.9234   -0.8600 H   0  0  0  0  0  0  0  0  0  0  0  0
   -3.7772   -0.7347    0.6222 H   0  0  0  0  0  0  0  0  0  0  0  0
   -3.1236    1.4874    0.9955 H   0  0  0  0  0  0  0  0  0  0  0  0
   -3.3140    1.3626   -0.7948 H   0  0  0  0  0  0  0  0  0  0  0  0
   -0.7852    1.6542    0.9044 H   0  0  0  0  0  0  0  0  0  0  0  0
   -1.3518    2.6114   -0.5152 H   0  0  0  0  0  0  0  0  0  0  0  0
    0.3358    1.4164   -1.5273 H   0  0  0  0  0  0  0  0  0  0  0  0
   -1.0272    0.2666   -1.8215 H   0  0  0  0  0  0  0  0  0  0  0  0
    0.1796   -2.1767    0.8054 H   0  0  0  0  0  0  0  0  0  0  0  0
   -0.7896   -2.0824   -0.7179 H   0  0  0  0  0  0  0  0  0  0  0  0
   -1.3884   -0.4298    1.8356 H   0  0  0  0  0  0  0  0  0  0  0  0
   -2.0920   -2.0543    1.4735 H   0  0  0  0  0  0  0  0  0  0  0  0
    2.2551    0.5980   -0.4040 H   0  0  0  0  0  0  0  0  0  0  0  0
    2.2035   -1.0223    0.4907 H   0  0  0  0  0  0  0  0  0  0  0  0
  1  2  1  0  0  0  0
  1  7  1  0  0  0  0
  1  9  1  0  0  0  0
  1 10  1  0  0  0  0
  2  3  1  0  0  0  0
  2 11  1  0  0  0  0
  2 12  1  0  0  0  0
  3  4  1  0  0  0  0
  3 13  1  0  0  0  0
  3 14  1  0  0  0  0
  4  5  1  0  0  0  0
  4 15  1  0  0  0  0
  4 16  1  0  0  0  0
  5  6  1  0  0  0  0
  5  8  2  0  0  0  0
  6  7  1  0  0  0  0
  6 17  1  0  0  0  0
  6 18  1  0  0  0  0
  7 19  1  0  0  0  0
  7 20  1  0  0  0  0
  8 21  1  0  0  0  0
  8 22  1  0  0  0  0
M  END
