./002704-78-1.hin
 OpenBabel09251311033D

 28 28  0  0  1  0  0  0  0  0999 V2000
   -1.4781   -1.1295   -2.2634 C   0  0  0  0  0  0  0  0  0  0  0  0
   -0.9633   -0.5611   -0.9635 C   0  0  0  0  0  0  0  0  0  0  0  0
   -1.6324   -1.2317    0.2039 C   0  0  0  0  0  0  0  0  0  0  0  0
   -0.9685    1.0035   -0.9535 C   0  0  2  0  0  0  0  0  0  0  0  0
    0.5720    1.0107   -0.8343 C   0  0  0  0  0  0  0  0  0  0  0  0
    0.6013   -0.5315   -0.9054 C   0  0  1  0  0  0  0  0  0  0  0  0
    1.2625   -1.2779    0.2093 C   0  0  0  0  0  0  0  0  0  0  0  0
    2.2948   -0.5411    1.0039 C   0  0  0  0  0  0  0  0  0  0  0  0
    1.0055   -2.4654    0.4392 O   0  0  0  0  0  0  0  0  0  0  0  0
   -1.7655    1.7254    0.0945 C   0  0  0  0  0  0  0  0  0  0  0  0
   -1.3626    1.4989    1.5187 C   0  0  0  0  0  0  0  0  0  0  0  0
   -2.1459    1.6490    2.4578 O   0  0  0  0  0  0  0  0  0  0  0  0
   -2.5813   -0.9722   -2.3401 H   0  0  0  0  0  0  0  0  0  0  0  0
   -0.9878   -0.6365   -3.1375 H   0  0  0  0  0  0  0  0  0  0  0  0
   -1.2696   -2.2261   -2.3116 H   0  0  0  0  0  0  0  0  0  0  0  0
   -1.4746   -2.3380    0.1483 H   0  0  0  0  0  0  0  0  0  0  0  0
   -1.2066   -0.8771    1.1743 H   0  0  0  0  0  0  0  0  0  0  0  0
   -2.7289   -1.0193    0.1947 H   0  0  0  0  0  0  0  0  0  0  0  0
   -1.2947    1.3938   -1.9529 H   0  0  0  0  0  0  0  0  0  0  0  0
    0.9618    1.4443    0.1101 H   0  0  0  0  0  0  0  0  0  0  0  0
    1.0804    1.5003   -1.6933 H   0  0  0  0  0  0  0  0  0  0  0  0
    1.0509   -0.8989   -1.8637 H   0  0  0  0  0  0  0  0  0  0  0  0
    2.9558   -1.2605    1.5465 H   0  0  0  0  0  0  0  0  0  0  0  0
    2.9194    0.0994    0.3362 H   0  0  0  0  0  0  0  0  0  0  0  0
    1.7867    0.1099    1.7583 H   0  0  0  0  0  0  0  0  0  0  0  0
   -1.6813    2.8337   -0.0909 H   0  0  0  0  0  0  0  0  0  0  0  0
   -2.8504    1.4515   -0.0233 H   0  0  0  0  0  0  0  0  0  0  0  0
   -0.3026    1.2069    1.6968 H   0  0  0  0  0  0  0  0  0  0  0  0
  1  2  1  0  0  0  0
  1 13  1  0  0  0  0
  1 14  1  0  0  0  0
  1 15  1  0  0  0  0
  2  3  1  0  0  0  0
  2  4  1  0  0  0  0
  2  6  1  0  0  0  0
  3 16  1  0  0  0  0
  3 17  1  0  0  0  0
  3 18  1  0  0  0  0
  4  5  1  0  0  0  0
  4 10  1  0  0  0  0
  4 19  1  6  0  0  0
  5  6  1  0  0  0  0
  5 20  1  0  0  0  0
  5 21  1  0  0  0  0
  6  7  1  0  0  0  0
  6 22  1  6  0  0  0
  7  8  1  0  0  0  0
  7  9  2  0  0  0  0
  8 23  1  0  0  0  0
  8 24  1  0  0  0  0
  8 25  1  0  0  0  0
 10 11  1  0  0  0  0
 10 26  1  0  0  0  0
 10 27  1  0  0  0  0
 11 12  2  0  0  0  0
 11 28  1  0  0  0  0
M  END
