./003387-41-5.hin
 OpenBabel09251311033D

 26 27  0  0  1  0  0  0  0  0999 V2000
   -2.4574   -4.9523    3.9431 C   0  0  0  0  0  0  0  0  0  0  0  0
   -1.1683   -5.7206    3.9685 C   0  0  0  0  0  0  0  0  0  0  0  0
   -0.0199   -4.7053    3.9632 C   0  0  0  0  0  0  0  0  0  0  0  0
   -0.6463   -3.3247    3.8933 C   0  0  2  0  0  0  0  0  0  0  0  0
   -2.1643   -3.5042    3.8575 C   0  0  1  0  0  0  0  0  0  0  0  0
   -1.1037   -6.3936    3.0758 H   0  0  0  0  0  0  0  0  0  0  0  0
   -2.8605   -2.8247    4.3729 H   0  0  0  0  0  0  0  0  0  0  0  0
   -3.6719   -5.4929    4.0088 C   0  0  0  0  0  0  0  0  0  0  0  0
   -1.4216   -3.0338    2.6333 C   0  0  0  0  0  0  0  0  0  0  0  0
    0.0641   -2.2513    4.6616 C   0  0  0  0  0  0  0  0  0  0  0  0
   -0.7645   -0.9960    4.8436 C   0  0  0  0  0  0  0  0  0  0  0  0
    1.3837   -1.9111    3.9931 C   0  0  0  0  0  0  0  0  0  0  0  0
   -1.1190   -6.3648    4.8827 H   0  0  0  0  0  0  0  0  0  0  0  0
    0.6526   -4.8719    3.0851 H   0  0  0  0  0  0  0  0  0  0  0  0
    0.5967   -4.8071    4.8909 H   0  0  0  0  0  0  0  0  0  0  0  0
   -3.8263   -6.5762    4.0875 H   0  0  0  0  0  0  0  0  0  0  0  0
   -4.5858   -4.8865    3.9871 H   0  0  0  0  0  0  0  0  0  0  0  0
   -1.5483   -1.9825    2.3188 H   0  0  0  0  0  0  0  0  0  0  0  0
   -1.3139   -3.7165    1.7716 H   0  0  0  0  0  0  0  0  0  0  0  0
    0.2870   -2.6636    5.6900 H   0  0  0  0  0  0  0  0  0  0  0  0
   -0.1916   -0.2484    5.4443 H   0  0  0  0  0  0  0  0  0  0  0  0
   -1.0152   -0.5354    3.8580 H   0  0  0  0  0  0  0  0  0  0  0  0
   -1.7154   -1.2270    5.3809 H   0  0  0  0  0  0  0  0  0  0  0  0
    1.9439   -1.1638    4.6046 H   0  0  0  0  0  0  0  0  0  0  0  0
    2.0101   -2.8293    3.8853 H   0  0  0  0  0  0  0  0  0  0  0  0
    1.2073   -1.4807    2.9781 H   0  0  0  0  0  0  0  0  0  0  0  0
  1  2  1  0  0  0  0
  1  5  1  0  0  0  0
  1  8  2  0  0  0  0
  2  3  1  0  0  0  0
  2  6  1  0  0  0  0
  2 13  1  0  0  0  0
  3  4  1  0  0  0  0
  3 14  1  0  0  0  0
  3 15  1  0  0  0  0
  4  5  1  0  0  0  0
  4  9  1  0  0  0  0
  4 10  1  1  0  0  0
  5  7  1  1  0  0  0
  5  9  1  0  0  0  0
  8 16  1  0  0  0  0
  8 17  1  0  0  0  0
  9 18  1  0  0  0  0
  9 19  1  0  0  0  0
 10 11  1  0  0  0  0
 10 12  1  0  0  0  0
 10 20  1  0  0  0  0
 11 21  1  0  0  0  0
 11 22  1  0  0  0  0
 11 23  1  0  0  0  0
 12 24  1  0  0  0  0
 12 25  1  0  0  0  0
 12 26  1  0  0  0  0
M  END
