./004545-68-0.hin
 OpenBabel09251311033D

 39 41  0  0  1  0  0  0  0  0999 V2000
   -1.7468   -0.1559    0.5433 C   0  0  0  0  0  0  0  0  0  0  0  0
   -1.7282    1.3559    0.3875 C   0  0  2  0  0  0  0  0  0  0  0  0
   -0.2406    1.8573    0.4138 C   0  0  1  0  0  0  0  0  0  0  0  0
   -1.0346   -0.5922    1.8181 C   0  0  0  0  0  0  0  0  0  0  0  0
    0.1441    0.2263    2.1952 C   0  0  0  0  0  0  0  0  0  0  0  0
    0.5176    1.3637    1.5840 C   0  0  0  0  0  0  0  0  0  0  0  0
   -2.6536    1.9390    1.4415 C   0  0  0  0  0  0  0  0  0  0  0  0
    1.6962    2.1510    2.0128 C   0  0  0  0  0  0  0  0  0  0  0  0
   -2.0061    2.0132   -1.0107 C   0  0  2  0  0  0  0  0  0  0  0  0
    0.2990    1.2998   -0.9341 C   0  0  0  0  0  0  0  0  0  0  0  0
   -0.8806    1.4610   -1.9290 C   0  0  0  0  0  0  0  0  0  0  0  0
   -0.4857    2.4172   -3.0452 C   0  0  0  0  0  0  0  0  0  0  0  0
   -1.3067    0.1577   -2.5887 C   0  0  0  0  0  0  0  0  0  0  0  0
   -1.6582    3.4852   -0.6851 C   0  0  0  0  0  0  0  0  0  0  0  0
   -0.4098    3.3781    0.2144 C   0  0  0  0  0  0  0  0  0  0  0  0
   -1.2398   -0.6582   -0.3190 H   0  0  0  0  0  0  0  0  0  0  0  0
   -2.8073   -0.5190    0.5647 H   0  0  0  0  0  0  0  0  0  0  0  0
   -0.7062   -1.6607    1.6930 H   0  0  0  0  0  0  0  0  0  0  0  0
   -1.7583   -0.5794    2.6797 H   0  0  0  0  0  0  0  0  0  0  0  0
    0.7137   -0.1594    3.0566 H   0  0  0  0  0  0  0  0  0  0  0  0
   -2.6117    1.3415    2.3848 H   0  0  0  0  0  0  0  0  0  0  0  0
   -2.3943    2.9898    1.7096 H   0  0  0  0  0  0  0  0  0  0  0  0
   -3.7038    1.9194    1.0598 H   0  0  0  0  0  0  0  0  0  0  0  0
    2.2384    1.6547    2.8543 H   0  0  0  0  0  0  0  0  0  0  0  0
    2.4047    2.2757    1.1556 H   0  0  0  0  0  0  0  0  0  0  0  0
    1.3750    3.1694    2.3483 H   0  0  0  0  0  0  0  0  0  0  0  0
   -3.0263    1.8627   -1.4107 H   0  0  0  0  0  0  0  0  0  0  0  0
    0.5998    0.2308   -0.8232 H   0  0  0  0  0  0  0  0  0  0  0  0
    1.1971    1.8750   -1.2637 H   0  0  0  0  0  0  0  0  0  0  0  0
    0.0909    3.2902   -2.6545 H   0  0  0  0  0  0  0  0  0  0  0  0
    0.1644    1.8863   -3.7836 H   0  0  0  0  0  0  0  0  0  0  0  0
   -1.3939    2.7919   -3.5754 H   0  0  0  0  0  0  0  0  0  0  0  0
   -1.6710    0.3463   -3.6294 H   0  0  0  0  0  0  0  0  0  0  0  0
   -0.4491   -0.5548   -2.6462 H   0  0  0  0  0  0  0  0  0  0  0  0
   -2.1446   -0.3302   -2.0347 H   0  0  0  0  0  0  0  0  0  0  0  0
   -2.5062    3.9714   -0.1434 H   0  0  0  0  0  0  0  0  0  0  0  0
   -1.4685    4.0941   -1.5982 H   0  0  0  0  0  0  0  0  0  0  0  0
   -0.5594    3.9006    1.1888 H   0  0  0  0  0  0  0  0  0  0  0  0
    0.4883    3.8207   -0.2792 H   0  0  0  0  0  0  0  0  0  0  0  0
  1  2  1  0  0  0  0
  1  4  1  0  0  0  0
  1 16  1  0  0  0  0
  1 17  1  0  0  0  0
  2  3  1  0  0  0  0
  2  7  1  1  0  0  0
  2  9  1  0  0  0  0
  3  6  1  1  0  0  0
  3 10  1  0  0  0  0
  3 15  1  0  0  0  0
  4  5  1  0  0  0  0
  4 18  1  0  0  0  0
  4 19  1  0  0  0  0
  5  6  2  0  0  0  0
  5 20  1  0  0  0  0
  6  8  1  0  0  0  0
  7 21  1  0  0  0  0
  7 22  1  0  0  0  0
  7 23  1  0  0  0  0
  8 24  1  0  0  0  0
  8 25  1  0  0  0  0
  8 26  1  0  0  0  0
  9 11  1  0  0  0  0
  9 14  1  0  0  0  0
  9 27  1  6  0  0  0
 10 11  1  0  0  0  0
 10 28  1  0  0  0  0
 10 29  1  0  0  0  0
 11 12  1  0  0  0  0
 11 13  1  0  0  0  0
 12 30  1  0  0  0  0
 12 31  1  0  0  0  0
 12 32  1  0  0  0  0
 13 33  1  0  0  0  0
 13 34  1  0  0  0  0
 13 35  1  0  0  0  0
 14 15  1  0  0  0  0
 14 36  1  0  0  0  0
 14 37  1  0  0  0  0
 15 38  1  0  0  0  0
 15 39  1  0  0  0  0
M  END
