./013466-78-9.hin
 OpenBabel09251311033D

 26 27  0  0  1  0  0  0  0  0999 V2000
   -3.3170   -0.1454    1.5781 C   0  0  0  0  0  0  0  0  0  0  0  0
   -3.4085    1.1869    1.4644 C   0  0  0  0  0  0  0  0  0  0  0  0
   -2.6129    1.9911    0.4947 C   0  0  0  0  0  0  0  0  0  0  0  0
   -1.5497    1.2258   -0.2269 C   0  0  1  0  0  0  0  0  0  0  0  0
   -1.4532   -0.2706   -0.0892 C   0  0  1  0  0  0  0  0  0  0  0  0
   -2.4215   -1.0120    0.7769 C   0  0  0  0  0  0  0  0  0  0  0  0
   -4.3313    1.9827    2.3116 C   0  0  0  0  0  0  0  0  0  0  0  0
   -1.8829    0.3373   -1.4100 C   0  0  0  0  0  0  0  0  0  0  0  0
   -0.8978    0.2971   -2.5365 C   0  0  0  0  0  0  0  0  0  0  0  0
   -3.2963    0.2033   -1.8736 C   0  0  0  0  0  0  0  0  0  0  0  0
   -3.9378   -0.6870    2.3116 H   0  0  0  0  0  0  0  0  0  0  0  0
   -2.1362    2.8456    1.0505 H   0  0  0  0  0  0  0  0  0  0  0  0
   -3.3177    2.4425   -0.2589 H   0  0  0  0  0  0  0  0  0  0  0  0
   -0.5965    1.7913   -0.2897 H   0  0  0  0  0  0  0  0  0  0  0  0
   -0.4359   -0.7134   -0.0584 H   0  0  0  0  0  0  0  0  0  0  0  0
   -1.8489   -1.6770    1.4818 H   0  0  0  0  0  0  0  0  0  0  0  0
   -3.0531   -1.6861    0.1320 H   0  0  0  0  0  0  0  0  0  0  0  0
   -4.9621    1.3279    2.9609 H   0  0  0  0  0  0  0  0  0  0  0  0
   -3.7472    2.6738    2.9697 H   0  0  0  0  0  0  0  0  0  0  0  0
   -5.0074    2.6011    1.6698 H   0  0  0  0  0  0  0  0  0  0  0  0
    0.1495    0.4000   -2.1615 H   0  0  0  0  0  0  0  0  0  0  0  0
   -0.9829   -0.6720   -3.0865 H   0  0  0  0  0  0  0  0  0  0  0  0
   -1.1002    1.1303   -3.2533 H   0  0  0  0  0  0  0  0  0  0  0  0
   -3.5510    1.0373   -2.5728 H   0  0  0  0  0  0  0  0  0  0  0  0
   -3.4327   -0.7665   -2.4121 H   0  0  0  0  0  0  0  0  0  0  0  0
   -4.0066    0.2335   -1.0104 H   0  0  0  0  0  0  0  0  0  0  0  0
  1  2  2  0  0  0  0
  1  6  1  0  0  0  0
  1 11  1  0  0  0  0
  2  3  1  0  0  0  0
  2  7  1  0  0  0  0
  3  4  1  0  0  0  0
  3 12  1  0  0  0  0
  3 13  1  0  0  0  0
  4  5  1  0  0  0  0
  4  8  1  0  0  0  0
  4 14  1  6  0  0  0
  5  6  1  0  0  0  0
  5  8  1  0  0  0  0
  5 15  1  1  0  0  0
  6 16  1  0  0  0  0
  6 17  1  0  0  0  0
  7 18  1  0  0  0  0
  7 19  1  0  0  0  0
  7 20  1  0  0  0  0
  8  9  1  0  0  0  0
  8 10  1  0  0  0  0
  9 21  1  0  0  0  0
  9 22  1  0  0  0  0
  9 23  1  0  0  0  0
 10 24  1  0  0  0  0
 10 25  1  0  0  0  0
 10 26  1  0  0  0  0
M  END
