./87064-18-4.hin
 OpenBabel10021517303D

 39 41  0  0  1  0  0  0  0  0999 V2000
    0.7784   -0.0512    0.0816 C   0  0  2  0  0  0  0  0  0  0  0  0
    1.0871    1.5113    0.4374 C   0  0  0  0  0  0  0  0  0  0  0  0
    2.6453    1.7260    0.2208 C   0  0  1  0  0  0  0  0  0  0  0  0
    3.5873    1.0417    1.3021 C   0  0  0  0  0  0  0  0  0  0  0  0
    3.5186   -0.5342    0.9999 C   0  0  0  0  0  0  0  0  0  0  0  0
    0.0601   -0.2411   -1.2452 C   0  0  0  0  0  0  0  0  0  0  0  0
    1.0073   -0.1644   -2.4146 C   0  0  0  0  0  0  0  0  0  0  0  0
    2.0018    0.9430   -2.1714 C   0  0  0  0  0  0  0  0  0  0  0  0
    2.8399    0.6894   -0.9197 C   0  0  1  0  0  0  0  0  0  0  0  0
    3.0003    3.1573   -0.0086 C   0  0  0  0  0  0  0  0  0  0  0  0
   -0.0763   -0.7115    1.1331 C   0  0  0  0  0  0  0  0  0  0  0  0
   -1.0725   -0.0676    1.7488 C   0  0  0  0  0  0  0  0  0  0  0  0
    0.2190   -2.1419    1.3972 C   0  0  0  0  0  0  0  0  0  0  0  0
    4.2658    0.5039   -1.4062 C   0  0  0  0  0  0  0  0  0  0  0  0
    2.2835   -0.4186    0.0907 C   0  0  1  0  0  0  0  0  0  0  0  0
    1.9557   -0.1056    1.2925 H   0  0  0  0  0  0  0  0  0  0  0  0
    0.8111    1.7099    1.4969 H   0  0  0  0  0  0  0  0  0  0  0  0
    0.5116    2.1841   -0.2325 H   0  0  0  0  0  0  0  0  0  0  0  0
    3.2171    1.2434    2.3322 H   0  0  0  0  0  0  0  0  0  0  0  0
    4.6232    1.4304    1.2051 H   0  0  0  0  0  0  0  0  0  0  0  0
    3.3940   -1.1337    1.9334 H   0  0  0  0  0  0  0  0  0  0  0  0
    4.4193   -0.9270    0.4810 H   0  0  0  0  0  0  0  0  0  0  0  0
   -0.7326    0.5488   -1.3338 H   0  0  0  0  0  0  0  0  0  0  0  0
   -0.4574   -1.2376   -1.2537 H   0  0  0  0  0  0  0  0  0  0  0  0
    0.4381    0.0226   -3.3616 H   0  0  0  0  0  0  0  0  0  0  0  0
    1.5523   -1.1382   -2.5293 H   0  0  0  0  0  0  0  0  0  0  0  0
    1.4659    1.9249   -2.0834 H   0  0  0  0  0  0  0  0  0  0  0  0
    2.6586    1.0307   -3.0787 H   0  0  0  0  0  0  0  0  0  0  0  0
    2.8464    3.7500    0.9261 H   0  0  0  0  0  0  0  0  0  0  0  0
    4.0717    3.2469   -0.3154 H   0  0  0  0  0  0  0  0  0  0  0  0
    2.3664    3.5994   -0.8162 H   0  0  0  0  0  0  0  0  0  0  0  0
   -1.7132   -0.5585    2.4925 H   0  0  0  0  0  0  0  0  0  0  0  0
   -1.3140    0.9837    1.5462 H   0  0  0  0  0  0  0  0  0  0  0  0
   -0.4221   -2.5464    2.2180 H   0  0  0  0  0  0  0  0  0  0  0  0
    0.0362   -2.7449    0.4722 H   0  0  0  0  0  0  0  0  0  0  0  0
    1.2932   -2.2714    1.6846 H   0  0  0  0  0  0  0  0  0  0  0  0
    4.5000    1.2583   -2.2001 H   0  0  0  0  0  0  0  0  0  0  0  0
    5.0420    0.6440   -0.6187 H   0  0  0  0  0  0  0  0  0  0  0  0
    4.3768   -0.5183   -1.8430 H   0  0  0  0  0  0  0  0  0  0  0  0
  1  2  1  0  0  0  0
  1  6  1  0  0  0  0
  1 11  1  1  0  0  0
  1 15  1  0  0  0  0
  2  3  1  0  0  0  0
  2 17  1  0  0  0  0
  2 18  1  0  0  0  0
  3  4  1  0  0  0  0
  3  9  1  0  0  0  0
  3 10  1  6  0  0  0
  4  5  1  0  0  0  0
  4 19  1  0  0  0  0
  4 20  1  0  0  0  0
  5 15  1  0  0  0  0
  5 21  1  0  0  0  0
  5 22  1  0  0  0  0
  6  7  1  0  0  0  0
  6 23  1  0  0  0  0
  6 24  1  0  0  0  0
  7  8  1  0  0  0  0
  7 25  1  0  0  0  0
  7 26  1  0  0  0  0
  8  9  1  0  0  0  0
  8 27  1  0  0  0  0
  8 28  1  0  0  0  0
  9 14  1  6  0  0  0
  9 15  1  0  0  0  0
 10 29  1  0  0  0  0
 10 30  1  0  0  0  0
 10 31  1  0  0  0  0
 11 12  2  0  0  0  0
 11 13  1  0  0  0  0
 12 32  1  0  0  0  0
 12 33  1  0  0  0  0
 13 34  1  0  0  0  0
 13 35  1  0  0  0  0
 13 36  1  0  0  0  0
 14 37  1  0  0  0  0
 14 38  1  0  0  0  0
 14 39  1  0  0  0  0
 15 16  1  1  0  0  0
M  END
