./007086-79-5.hin
 OpenBabel09251311033D

 28 27  0  0  1  0  0  0  0  0999 V2000
   -2.6066   -3.3201    0.9315 C   0  0  0  0  0  0  0  0  0  0  0  0
   -1.2465   -2.6991    0.9689 C   0  0  0  0  0  0  0  0  0  0  0  0
   -0.2337   -3.3492    1.2448 O   0  0  0  0  0  0  0  0  0  0  0  0
   -1.2159   -1.2303    0.6501 C   0  0  0  0  0  0  0  0  0  0  0  0
    0.1902   -0.7126    0.4432 C   0  0  0  0  0  0  0  0  0  0  0  0
    0.2235    0.7955    0.2181 C   0  0  1  0  0  0  0  0  0  0  0  0
    1.5969    1.3292    0.5090 C   0  0  0  0  0  0  0  0  0  0  0  0
    1.6763    2.3220    1.6087 C   0  0  0  0  0  0  0  0  0  0  0  0
    2.6789    0.9232   -0.1622 C   0  0  0  0  0  0  0  0  0  0  0  0
   -0.2125    1.1363   -1.2014 C   0  0  0  0  0  0  0  0  0  0  0  0
   -3.3360   -2.6865    1.4911 H   0  0  0  0  0  0  0  0  0  0  0  0
   -2.9462   -3.4027   -0.1303 H   0  0  0  0  0  0  0  0  0  0  0  0
   -2.5883   -4.3421    1.3820 H   0  0  0  0  0  0  0  0  0  0  0  0
   -1.8401   -1.0502   -0.2649 H   0  0  0  0  0  0  0  0  0  0  0  0
   -1.7054   -0.6842    1.5014 H   0  0  0  0  0  0  0  0  0  0  0  0
    0.8062   -0.9674    1.3470 H   0  0  0  0  0  0  0  0  0  0  0  0
    0.6607   -1.2362   -0.4298 H   0  0  0  0  0  0  0  0  0  0  0  0
   -0.5071    1.2743    0.9325 H   0  0  0  0  0  0  0  0  0  0  0  0
    2.7236    2.6812    1.7606 H   0  0  0  0  0  0  0  0  0  0  0  0
    1.0292    3.2063    1.3818 H   0  0  0  0  0  0  0  0  0  0  0  0
    1.3184    1.8637    2.5647 H   0  0  0  0  0  0  0  0  0  0  0  0
    3.6839    1.3066    0.0562 H   0  0  0  0  0  0  0  0  0  0  0  0
    2.6272    0.1772   -0.9660 H   0  0  0  0  0  0  0  0  0  0  0  0
   -0.4479    2.6047   -1.3799 C   0  0  0  0  0  0  0  0  0  0  0  0
   -1.3132    3.0557   -2.1311 O   0  0  0  0  0  0  0  0  0  0  0  0
    0.5841    0.8231   -1.9300 H   0  0  0  0  0  0  0  0  0  0  0  0
   -1.1453    0.5691   -1.4608 H   0  0  0  0  0  0  0  0  0  0  0  0
    0.2222    3.2722   -0.7917 H   0  0  0  0  0  0  0  0  0  0  0  0
  1  2  1  0  0  0  0
  1 11  1  0  0  0  0
  1 12  1  0  0  0  0
  1 13  1  0  0  0  0
  2  3  2  0  0  0  0
  2  4  1  0  0  0  0
  4  5  1  0  0  0  0
  4 14  1  0  0  0  0
  4 15  1  0  0  0  0
  5  6  1  0  0  0  0
  5 16  1  0  0  0  0
  5 17  1  0  0  0  0
  6  7  1  0  0  0  0
  6 10  1  0  0  0  0
  6 18  1  1  0  0  0
  7  8  1  0  0  0  0
  7  9  2  0  0  0  0
  8 19  1  0  0  0  0
  8 20  1  0  0  0  0
  8 21  1  0  0  0  0
  9 22  1  0  0  0  0
  9 23  1  0  0  0  0
 10 24  1  0  0  0  0
 10 26  1  0  0  0  0
 10 27  1  0  0  0  0
 24 25  2  0  0  0  0
 24 28  1  0  0  0  0
M  END
