A11
  Mrv0541 08111511043D          

 47 50  0  0  0  0            999 V2000
    0.0000    0.0000    0.0000 Cl  0  0  0  0  0  0  0  0  0  0  0  0
    1.6954    0.0000    0.0000 C   0  0  0  0  0  0  0  0  0  0  0  0
    2.4092    0.0000    1.2105 C   0  0  0  0  0  0  0  0  0  0  0  0
    1.7030    0.0030    2.4869 C   0  0  0  0  0  0  0  0  0  0  0  0
    1.4028   -1.1016    3.2021 N   0  0  0  0  0  0  0  0  0  0  0  0
    0.7380   -0.7493    4.2852 O   0  0  0  0  0  0  0  0  0  0  0  0
    1.1730    1.1753    3.1926 C   0  0  0  0  0  0  0  0  0  0  0  0
    1.2139    2.5909    2.8169 C   0  0  0  0  0  0  0  0  0  0  0  0
    0.3383    3.3973    3.1911 O   0  0  0  0  0  0  0  0  0  0  0  0
    2.2760    3.0071    2.0209 N   0  0  0  0  0  0  0  0  0  0  0  0
    2.4130    4.3530    1.6176 C   0  0  1  0  0  0  0  0  0  0  0  0
    3.7602    5.1154    1.9487 C   0  0  1  0  0  0  0  0  0  0  0  0
    5.1694    4.1875    2.5221 S   0  0  0  0  0  0  0  0  0  0  0  0
    6.1303    4.3865    0.9880 C   0  0  1  0  0  0  0  0  0  0  0  0
    7.4274    5.0720    1.3445 C   0  0  0  0  0  0  0  0  0  0  0  0
    6.4039    3.0148    0.4149 C   0  0  0  0  0  0  0  0  0  0  0  0
    3.9233    5.4240    0.5134 N   0  0  1  0  0  0  0  0  0  0  0  0
    5.2570    5.2179   -0.0032 C   0  0  1  0  0  0  0  0  0  0  0  0
    5.9496    6.5292   -0.3538 C   0  0  0  0  0  0  0  0  0  0  0  0
    5.8368    7.5476    0.5366 O   0  0  0  0  0  0  0  0  0  0  0  0
    6.6077    6.7403   -1.3760 O   0  0  0  0  0  0  0  0  0  0  0  0
    2.8032    4.6012    0.1189 C   0  0  0  0  0  0  0  0  0  0  0  0
    2.3679    4.2982   -0.9774 O   0  0  0  0  0  0  0  0  0  0  0  0
    0.5592    0.6484    4.3227 C   0  0  0  0  0  0  0  0  0  0  0  0
   -0.1760    1.2079    5.4540 C   0  0  0  0  0  0  0  0  0  0  0  0
    3.8134   -0.0230    1.1693 C   0  0  0  0  0  0  0  0  0  0  0  0
    4.7135   -0.0505    2.6083 Cl  0  0  0  0  0  0  0  0  0  0  0  0
    4.4896   -0.0255   -0.0546 C   0  0  0  0  0  0  0  0  0  0  0  0
    2.3730   -0.0024   -1.2243 C   0  0  0  0  0  0  0  0  0  0  0  0
    3.7655   -0.0149   -1.2451 C   0  0  0  0  0  0  0  0  0  0  0  0
    7.2337    6.0591    1.8335 H   0  0  0  0  0  0  0  0  0  0  0  0
    8.0144    4.4361    2.0518 H   0  0  0  0  0  0  0  0  0  0  0  0
    8.0427    5.2390    0.4247 H   0  0  0  0  0  0  0  0  0  0  0  0
    6.9670    2.3956    1.1560 H   0  0  0  0  0  0  0  0  0  0  0  0
    5.4526    2.4839    0.1640 H   0  0  0  0  0  0  0  0  0  0  0  0
    7.0215    3.1018   -0.5136 H   0  0  0  0  0  0  0  0  0  0  0  0
    6.2860    8.3350    0.1830 H   0  0  0  0  0  0  0  0  0  0  0  0
    5.1820    4.6605   -0.9906 H   0  0  0  0  0  0  0  0  0  0  0  0
    3.6079    6.0240    2.5751 H   0  0  0  0  0  0  0  0  0  0  0  0
    1.5082    4.9529    1.9164 H   0  0  0  0  0  0  0  0  0  0  0  0
    3.0475    2.3932    1.8781 H   0  0  0  0  0  0  0  0  0  0  0  0
    0.4505    1.1606    6.3812 H   0  0  0  0  0  0  0  0  0  0  0  0
   -0.4347    2.2767    5.2345 H   0  0  0  0  0  0  0  0  0  0  0  0
   -1.1162    0.6271    5.6331 H   0  0  0  0  0  0  0  0  0  0  0  0
    5.5904   -0.0437   -0.0760 H   0  0  0  0  0  0  0  0  0  0  0  0
    4.2975   -0.0197   -2.2092 H   0  0  0  0  0  0  0  0  0  0  0  0
    1.8050    0.0057   -2.1681 H   0  0  0  0  0  0  0  0  0  0  0  0
  1  2  1  0  0  0  0
  2  3  1  0  0  0  0
  3  4  1  0  0  0  0
  4  7  1  0  0  0  0
  4  5  2  0  0  0  0
  5  6  1  0  0  0  0
  6 24  1  0  0  0  0
  7 24  2  0  0  0  0
  8  7  1  0  0  0  0
  8  9  2  0  0  0  0
 10  8  1  0  0  0  0
 11 10  1  0  0  0  0
 11 40  1  1  0  0  0
 11 12  1  0  0  0  0
 12 13  1  0  0  0  0
 12 39  1  1  0  0  0
 14 13  1  0  0  0  0
 14 15  1  0  0  0  0
 15 31  1  0  0  0  0
 15 32  1  0  0  0  0
 16 14  1  0  0  0  0
 16 34  1  0  0  0  0
 17 12  1  0  0  0  0
 18 14  1  0  0  0  0
 18 17  1  0  0  0  0
 18 38  1  6  0  0  0
 19 18  1  0  0  0  0
 19 20  1  0  0  0  0
 21 19  2  0  0  0  0
 22 11  1  0  0  0  0
 22 17  1  0  0  0  0
 23 22  2  0  0  0  0
 24 25  1  0  0  0  0
 25 44  1  0  0  0  0
 25 42  1  0  0  0  0
 26  3  2  0  0  0  0
 26 27  1  0  0  0  0
 28 26  1  0  0  0  0
 29  2  2  0  0  0  0
 30 28  2  0  0  0  0
 30 29  1  0  0  0  0
 33 15  1  0  0  0  0
 35 16  1  0  0  0  0
 36 16  1  0  0  0  0
 37 20  1  0  0  0  0
 41 10  1  0  0  0  0
 43 25  1  0  0  0  0
 45 28  1  0  0  0  0
 46 30  1  0  0  0  0
 47 29  1  0  0  0  0
M  END