A12
  Mrv0541 08111511043D          

 26 27  0  0  0  0            999 V2000
    0.0000    0.0000    0.0000 C   0  0  0  0  0  0  0  0  0  0  0  0
    1.3820    0.0000    0.0000 C   0  0  0  0  0  0  0  0  0  0  0  0
    2.0926    0.0000    1.2237 C   0  0  0  0  0  0  0  0  0  0  0  0
    3.4494   -0.0158    1.0775 O   0  0  0  0  0  0  0  0  0  0  0  0
   -0.7202   -0.0019    1.2109 C   0  0  0  0  0  0  0  0  0  0  0  0
   -0.0192    0.0022    2.4142 C   0  0  0  0  0  0  0  0  0  0  0  0
    1.3892    0.0051    2.4414 C   0  0  0  0  0  0  0  0  0  0  0  0
    2.0017    0.0108    3.7704 C   0  0  0  0  0  0  0  0  0  0  0  0
    3.3387    0.2993    3.8256 O   0  0  0  0  0  0  0  0  0  0  0  0
    1.4617   -0.2008    4.8619 O   0  0  0  0  0  0  0  0  0  0  0  0
   -2.1800   -0.0273    1.1863 C   0  0  0  0  0  0  0  0  0  0  0  0
   -2.8409   -0.9071    0.3171 C   0  0  0  0  0  0  0  0  0  0  0  0
   -4.2262   -0.9686    0.2543 C   0  0  0  0  0  0  0  0  0  0  0  0
   -4.9940   -0.1269    1.0814 C   0  0  0  0  0  0  0  0  0  0  0  0
   -6.3453   -0.1784    1.0278 F   0  0  0  0  0  0  0  0  0  0  0  0
   -2.9629    0.8126    2.0127 C   0  0  0  0  0  0  0  0  0  0  0  0
   -4.3674    0.7663    1.9624 C   0  0  0  0  0  0  0  0  0  0  0  0
   -2.3802    1.6863    2.8671 F   0  0  0  0  0  0  0  0  0  0  0  0
   -0.5472    0.0071   -0.9564 H   0  0  0  0  0  0  0  0  0  0  0  0
    1.9542    0.0026   -0.9397 H   0  0  0  0  0  0  0  0  0  0  0  0
    3.8876   -0.0265    1.9415 H   0  0  0  0  0  0  0  0  0  0  0  0
   -0.5651    0.0076    3.3750 H   0  0  0  0  0  0  0  0  0  0  0  0
    3.6373    0.2821    4.7498 H   0  0  0  0  0  0  0  0  0  0  0  0
   -2.2411   -1.5710   -0.3266 H   0  0  0  0  0  0  0  0  0  0  0  0
   -4.7298   -1.6665   -0.4300 H   0  0  0  0  0  0  0  0  0  0  0  0
   -4.9644    1.4258    2.6086 H   0  0  0  0  0  0  0  0  0  0  0  0
  1  2  2  0  0  0  0
  1  5  1  0  0  0  0
  2  3  1  0  0  0  0
  3  7  2  0  0  0  0
  4  3  1  0  0  0  0
  4 21  1  0  0  0  0
  5  6  2  0  0  0  0
  6  7  1  0  0  0  0
  6 22  1  0  0  0  0
  7  8  1  0  0  0  0
  8  9  1  0  0  0  0
  8 10  2  0  0  0  0
  9 23  1  0  0  0  0
 11  5  1  0  0  0  0
 11 16  1  0  0  0  0
 12 11  2  0  0  0  0
 13 12  1  0  0  0  0
 13 14  2  0  0  0  0
 14 17  1  0  0  0  0
 15 14  1  0  0  0  0
 16 18  1  0  0  0  0
 17 16  2  0  0  0  0
 17 26  1  0  0  0  0
 19  1  1  0  0  0  0
 20  2  1  0  0  0  0
 24 12  1  0  0  0  0
 25 13  1  0  0  0  0
M  END