A25
  Mrv0541 08111511043D          

 42 44  0  0  0  0            999 V2000
    0.0000    0.0000    0.0000 S   0  0  0  0  0  0  0  0  0  0  0  0
    1.7860    0.0000    0.0000 C   0  0  1  0  0  0  0  0  0  0  0  0
    2.2822    0.0000    1.3917 N   0  0  2  0  0  0  0  0  0  0  0  0
    2.8623   -1.3216    1.2746 C   0  0  0  0  0  0  0  0  0  0  0  0
    3.4118   -2.0369    2.0921 O   0  0  0  0  0  0  0  0  0  0  0  0
    2.5371   -1.3687   -0.2593 C   0  0  1  0  0  0  0  0  0  0  0  0
    1.7647   -2.4646   -0.7033 N   0  0  0  0  0  0  0  0  0  0  0  0
    2.1598   -3.2731   -1.7578 C   0  0  0  0  0  0  0  0  0  0  0  0
    3.2794   -3.1598   -2.2889 O   0  0  0  0  0  0  0  0  0  0  0  0
    1.1984   -4.3703   -2.2099 C   0  0  1  0  0  0  0  0  0  0  0  0
   -0.1661   -4.0566   -1.9527 O   0  0  0  0  0  0  0  0  0  0  0  0
   -0.7943   -3.3313   -2.9640 C   0  0  0  0  0  0  0  0  0  0  0  0
   -1.2698   -2.0504   -2.6543 C   0  0  0  0  0  0  0  0  0  0  0  0
   -2.0081   -1.3580   -3.6128 C   0  0  0  0  0  0  0  0  0  0  0  0
   -2.2566   -1.9294   -4.8612 C   0  0  0  0  0  0  0  0  0  0  0  0
   -1.0369   -3.9153   -4.2138 C   0  0  0  0  0  0  0  0  0  0  0  0
   -1.7713   -3.2032   -5.1601 C   0  0  0  0  0  0  0  0  0  0  0  0
   -0.1624    0.1149    1.8115 C   0  0  1  0  0  0  0  0  0  0  0  0
    1.2765    0.3019    2.3858 C   0  0  2  0  0  0  0  0  0  0  0  0
    1.4413    1.6995    2.9690 C   0  0  0  0  0  0  0  0  0  0  0  0
    1.6829    2.7100    2.0951 O   0  0  0  0  0  0  0  0  0  0  0  0
    1.3672    1.9906    4.1656 O   0  0  0  0  0  0  0  0  0  0  0  0
   -1.0748    1.2749    2.1232 C   0  0  0  0  0  0  0  0  0  0  0  0
   -0.7550   -1.1795    2.3207 C   0  0  0  0  0  0  0  0  0  0  0  0
   -2.8366   -1.3739   -5.6128 H   0  0  0  0  0  0  0  0  0  0  0  0
   -2.3917   -0.3530   -3.3811 H   0  0  0  0  0  0  0  0  0  0  0  0
   -1.0632   -1.6044   -1.6660 H   0  0  0  0  0  0  0  0  0  0  0  0
   -1.9706   -3.6509   -6.1451 H   0  0  0  0  0  0  0  0  0  0  0  0
   -0.6580   -4.9228   -4.4361 H   0  0  0  0  0  0  0  0  0  0  0  0
    1.3828   -4.5782   -3.2957 H   0  0  0  0  0  0  0  0  0  0  0  0
    1.3928   -5.2906   -1.5929 H   0  0  0  0  0  0  0  0  0  0  0  0
    0.8116   -2.5073   -0.4043 H   0  0  0  0  0  0  0  0  0  0  0  0
    3.4645   -1.2474   -0.8839 H   0  0  0  0  0  0  0  0  0  0  0  0
    2.1773    0.8489   -0.6046 H   0  0  0  0  0  0  0  0  0  0  0  0
    1.8048    3.5397    2.5886 H   0  0  0  0  0  0  0  0  0  0  0  0
    1.4185   -0.3993    3.2685 H   0  0  0  0  0  0  0  0  0  0  0  0
   -2.0995    1.0758    1.7242 H   0  0  0  0  0  0  0  0  0  0  0  0
   -1.1480    1.4209    3.2305 H   0  0  0  0  0  0  0  0  0  0  0  0
   -0.6906    2.2180    1.6600 H   0  0  0  0  0  0  0  0  0  0  0  0
   -1.7398   -1.3722    1.8288 H   0  0  0  0  0  0  0  0  0  0  0  0
   -0.0763   -2.0405    2.1058 H   0  0  0  0  0  0  0  0  0  0  0  0
   -0.9190   -1.1208    3.4255 H   0  0  0  0  0  0  0  0  0  0  0  0
  1 18  1  0  0  0  0
  2  1  1  0  0  0  0
  2 34  1  6  0  0  0
  2  3  1  0  0  0  0
  3 19  1  0  0  0  0
  4  3  1  0  0  0  0
  4  5  2  0  0  0  0
  6  2  1  0  0  0  0
  6  4  1  0  0  0  0
  6 33  1  6  0  0  0
  7  6  1  0  0  0  0
  7 32  1  0  0  0  0
  8  7  1  0  0  0  0
  9  8  2  0  0  0  0
 10  8  1  0  0  0  0
 10 11  1  0  0  0  0
 10 31  1  0  0  0  0
 12 11  1  0  0  0  0
 12 13  1  0  0  0  0
 13 27  1  0  0  0  0
 14 13  2  0  0  0  0
 14 26  1  0  0  0  0
 15 14  1  0  0  0  0
 16 12  2  0  0  0  0
 17 15  2  0  0  0  0
 17 16  1  0  0  0  0
 18 23  1  0  0  0  0
 18 24  1  0  0  0  0
 18 19  1  0  0  0  0
 19 20  1  0  0  0  0
 19 36  1  1  0  0  0
 20 22  2  0  0  0  0
 21 20  1  0  0  0  0
 21 35  1  0  0  0  0
 23 38  1  0  0  0  0
 24 42  1  0  0  0  0
 25 15  1  0  0  0  0
 28 17  1  0  0  0  0
 29 16  1  0  0  0  0
 30 10  1  0  0  0  0
 37 23  1  0  0  0  0
 39 23  1  0  0  0  0
 40 24  1  0  0  0  0
 41 24  1  0  0  0  0
M  END