A32
  Mrv0541 08111511043D          

 36 36  0  0  0  0            999 V2000
    0.0000    0.0000    0.0000 Cl  0  0  0  0  0  0  0  0  0  0  0  0
    1.7590    0.0000    0.0000 C   0  0  1  0  0  0  0  0  0  0  0  0
    2.3712    0.0000    1.6309 Cl  0  0  0  0  0  0  0  0  0  0  0  0
    2.2986   -1.1688   -0.8365 C   0  0  0  0  0  0  0  0  0  0  0  0
    3.2202   -1.8987   -0.4246 O   0  0  0  0  0  0  0  0  0  0  0  0
    1.7621   -1.3077   -2.0944 N   0  0  0  0  0  0  0  0  0  0  0  0
    2.0461   -2.3989   -2.9996 C   0  0  1  0  0  0  0  0  0  0  0  0
    3.5249   -2.8882   -3.0014 C   0  0  2  0  0  0  0  0  0  0  0  0
    4.4156   -1.7834   -3.0207 O   0  0  0  0  0  0  0  0  0  0  0  0
    3.7874   -3.6950   -4.2447 C   0  0  0  0  0  0  0  0  0  0  0  0
    3.7785   -5.0936   -4.1861 C   0  0  0  0  0  0  0  0  0  0  0  0
    4.0321   -5.8381   -5.3337 C   0  0  0  0  0  0  0  0  0  0  0  0
    4.3063   -5.2105   -6.5558 C   0  0  0  0  0  0  0  0  0  0  0  0
    4.5920   -6.1146   -7.9385 S   0  0  1  0  0  0  0  0  0  0  0  0
    4.0238   -7.3897   -7.8050 O   0  0  0  0  0  0  0  0  0  0  0  0
    4.2571   -5.3707   -9.0787 O   0  0  0  0  0  0  0  0  0  0  0  0
    6.2771   -6.2532   -7.8499 C   0  0  0  0  0  0  0  0  0  0  0  0
    4.0552   -3.0559   -5.4598 C   0  0  0  0  0  0  0  0  0  0  0  0
    4.3098   -3.8108   -6.6012 C   0  0  0  0  0  0  0  0  0  0  0  0
    1.1386   -3.6273   -2.7499 C   0  0  2  0  0  0  0  0  0  0  0  0
   -0.2206   -3.3078   -2.9520 O   0  0  0  0  0  0  0  0  0  0  0  0
    4.6259   -1.5783   -2.0991 H   0  0  0  0  0  0  0  0  0  0  0  0
    6.7996   -5.2659   -7.8467 H   0  0  0  0  0  0  0  0  0  0  0  0
    6.6245   -6.8013   -6.9406 H   0  0  0  0  0  0  0  0  0  0  0  0
    6.6810   -6.8176   -8.7286 H   0  0  0  0  0  0  0  0  0  0  0  0
    4.0052   -6.9419   -5.2895 H   0  0  0  0  0  0  0  0  0  0  0  0
    3.5735   -5.6060   -3.2335 H   0  0  0  0  0  0  0  0  0  0  0  0
    4.5039   -3.3029   -7.5630 H   0  0  0  0  0  0  0  0  0  0  0  0
    4.0772   -1.9551   -5.4985 H   0  0  0  0  0  0  0  0  0  0  0  0
    3.7016   -3.5179   -2.0826 H   0  0  0  0  0  0  0  0  0  0  0  0
   -0.5343   -2.8489   -2.1638 H   0  0  0  0  0  0  0  0  0  0  0  0
    1.3113   -4.0467   -1.7245 H   0  0  0  0  0  0  0  0  0  0  0  0
    1.3689   -4.4093   -3.5248 H   0  0  0  0  0  0  0  0  0  0  0  0
    1.8173   -2.0028   -4.0367 H   0  0  0  0  0  0  0  0  0  0  0  0
    1.0060   -0.7210   -2.3653 H   0  0  0  0  0  0  0  0  0  0  0  0
    2.0812    0.9681   -0.4636 H   0  0  0  0  0  0  0  0  0  0  0  0
  2  1  1  0  0  0  0
  4  2  1  0  0  0  0
 36  2  1  0  0  0  0
  2  3  1  0  0  0  0
  6  4  1  0  0  0  0
  4  5  2  0  0  0  0
  7  6  1  0  0  0  0
 35  6  1  0  0  0  0
 34  7  1  0  0  0  0
  8  7  1  0  0  0  0
  7 20  1  0  0  0  0
 10  8  1  0  0  0  0
  9  8  1  0  0  0  0
  8 30  1  0  0  0  0
  9 22  1  0  0  0  0
 18 10  2  0  0  0  0
 10 11  1  0  0  0  0
 12 11  2  0  0  0  0
 11 27  1  0  0  0  0
 13 12  1  0  0  0  0
 12 26  1  0  0  0  0
 14 13  1  0  0  0  0
 19 13  2  0  0  0  0
 16 14  2  0  0  0  0
 14 17  1  0  0  0  0
 14 15  2  0  0  0  0
 25 17  1  0  0  0  0
 17 23  1  0  0  0  0
 17 24  1  0  0  0  0
 19 18  1  0  0  0  0
 29 18  1  0  0  0  0
 28 19  1  0  0  0  0
 33 20  1  0  0  0  0
 21 20  1  0  0  0  0
 20 32  1  0  0  0  0
 21 31  1  0  0  0  0
M  END