A6
  Mrv0541 08111511043D          

 32 32  0  0  0  0            999 V2000
    0.0000    0.0000    0.0000 C   0  0  0  0  0  0  0  0  0  0  0  0
    1.3921    0.0000    0.0000 C   0  0  0  0  0  0  0  0  0  0  0  0
    2.0761    0.0000    1.2266 C   0  0  0  0  0  0  0  0  0  0  0  0
    3.5629    0.0015    1.2361 N   0  3  0  0  0  0  0  0  0  0  0  0
    4.1380    0.0050    2.2914 O   0  0  0  0  0  0  0  0  0  0  0  0
    4.1512    0.0004    0.1880 O   0  5  0  0  0  0  0  0  0  0  0  0
   -0.7099    0.0052    1.2062 C   0  0  0  0  0  0  0  0  0  0  0  0
   -0.0176   -0.0034    2.4218 C   0  0  0  0  0  0  0  0  0  0  0  0
    1.3748   -0.0062    2.4429 C   0  0  0  0  0  0  0  0  0  0  0  0
   -2.2149   -0.0045    1.1923 C   0  0  2  0  0  0  0  0  0  0  0  0
   -2.7515    1.4386    1.4334 C   0  0  1  0  0  0  0  0  0  0  0  0
   -2.4554    2.2754    0.1656 C   0  0  1  0  0  0  0  0  0  0  0  0
   -2.6589    3.6509    0.4009 O   0  0  0  0  0  0  0  0  0  0  0  0
   -4.1411    1.5168    1.8246 N   0  0  0  0  0  0  0  0  0  0  0  0
   -5.1340    0.6917    1.3711 C   0  0  0  0  0  0  0  0  0  0  0  0
   -6.5641    0.9891    1.8311 C   0  0  2  0  0  0  0  0  0  0  0  0
   -7.0632    2.5700    1.2698 Cl  0  0  0  0  0  0  0  0  0  0  0  0
   -6.6916    0.8492    3.5685 Cl  0  0  0  0  0  0  0  0  0  0  0  0
   -4.9359   -0.2802    0.6142 O   0  0  0  0  0  0  0  0  0  0  0  0
   -2.6399   -0.8697    2.2338 O   0  0  0  0  0  0  0  0  0  0  0  0
   -0.5402   -0.0103   -0.9598 H   0  0  0  0  0  0  0  0  0  0  0  0
    1.9523   -0.0030   -0.9508 H   0  0  0  0  0  0  0  0  0  0  0  0
   -0.5851   -0.0275    3.3667 H   0  0  0  0  0  0  0  0  0  0  0  0
    1.9206   -0.0152    3.4021 H   0  0  0  0  0  0  0  0  0  0  0  0
   -2.1594    1.8845    2.2903 H   0  0  0  0  0  0  0  0  0  0  0  0
   -1.3616    2.1860   -0.0794 H   0  0  0  0  0  0  0  0  0  0  0  0
   -3.0690    1.9151   -0.7010 H   0  0  0  0  0  0  0  0  0  0  0  0
   -3.6101    3.8113    0.4006 H   0  0  0  0  0  0  0  0  0  0  0  0
   -7.2605    0.2370    1.3788 H   0  0  0  0  0  0  0  0  0  0  0  0
   -4.3702    2.2291    2.4797 H   0  0  0  0  0  0  0  0  0  0  0  0
   -2.5943   -0.3720    0.1959 H   0  0  0  0  0  0  0  0  0  0  0  0
   -3.4553   -1.2934    1.9314 H   0  0  0  0  0  0  0  0  0  0  0  0
  1  2  2  0  0  0  0
  1  7  1  0  0  0  0
  2  3  1  0  0  0  0
  3  4  1  0  0  0  0
  3  9  2  0  0  0  0
  4  5  2  0  0  0  0
  6  4  1  0  0  0  0
  7  8  2  0  0  0  0
  8  9  1  0  0  0  0
  8 23  1  0  0  0  0
  9 24  1  0  0  0  0
 10  7  1  0  0  0  0
 10 31  1  6  0  0  0
 10 11  1  0  0  0  0
 10 20  1  0  0  0  0
 11 14  1  0  0  0  0
 11 25  1  1  0  0  0
 12 11  1  0  0  0  0
 12 13  1  0  0  0  0
 14 30  1  0  0  0  0
 15 14  1  0  0  0  0
 15 16  1  0  0  0  0
 16 18  1  0  0  0  0
 17 16  1  0  0  0  0
 19 15  2  0  0  0  0
 21  1  1  0  0  0  0
 22  2  1  0  0  0  0
 26 12  1  0  0  0  0
 27 12  1  0  0  0  0
 28 13  1  0  0  0  0
 29 16  1  0  0  0  0
 32 20  1  0  0  0  0
M  CHG  2   4   1   6  -1
M  END