A8
  Mrv0541 08111511043D          

 33 35  0  0  0  0            999 V2000
    0.0000    0.0000    0.0000 Cl  0  0  0  0  0  0  0  0  0  0  0  0
    1.6970    0.0000    0.0000 C   0  0  0  0  0  0  0  0  0  0  0  0
    2.3935    0.0000    1.2053 C   0  0  0  0  0  0  0  0  0  0  0  0
    3.7954   -0.0082    1.2222 C   0  0  0  0  0  0  0  0  0  0  0  0
    4.4761    0.0138    2.5370 C   0  0  0  0  0  0  0  0  0  0  0  0
    5.5299   -0.6609    2.8697 N   0  0  0  0  0  0  0  0  0  0  0  0
    6.1823   -1.5390    1.9325 C   0  0  2  0  0  0  0  0  0  0  0  0
    7.3249   -2.2636    2.6363 C   0  0  0  0  0  0  0  0  0  0  0  0
    7.2709   -3.6093    2.4187 O   0  0  0  0  0  0  0  0  0  0  0  0
    8.2327   -1.8326    3.3394 O   0  0  0  0  0  0  0  0  0  0  0  0
    3.8505    0.8998    3.5508 C   0  0  0  0  0  0  0  0  0  0  0  0
    3.6679    0.4595    4.8670 C   0  0  0  0  0  0  0  0  0  0  0  0
    3.0888    1.3098    5.8091 C   0  0  0  0  0  0  0  0  0  0  0  0
    2.7030    2.5998    5.4473 C   0  0  0  0  0  0  0  0  0  0  0  0
    3.4665    2.1980    3.1896 C   0  0  0  0  0  0  0  0  0  0  0  0
    2.8951    3.0433    4.1381 C   0  0  0  0  0  0  0  0  0  0  0  0
    4.5109   -0.0340    0.0020 C   0  0  0  0  0  0  0  0  0  0  0  0
    5.9112   -0.0274   -0.0612 N   0  0  0  0  0  0  0  0  0  0  0  0
    6.7604   -0.8258    0.6987 C   0  0  0  0  0  0  0  0  0  0  0  0
    7.9489   -0.9286    0.3622 O   0  0  0  0  0  0  0  0  0  0  0  0
    2.3944    0.0057   -1.2148 C   0  0  0  0  0  0  0  0  0  0  0  0
    3.7795   -0.0111   -1.2142 C   0  0  0  0  0  0  0  0  0  0  0  0
    8.0271   -4.0380    2.8523 H   0  0  0  0  0  0  0  0  0  0  0  0
    5.4666   -2.3342    1.5460 H   0  0  0  0  0  0  0  0  0  0  0  0
    2.2511    3.2696    6.1939 H   0  0  0  0  0  0  0  0  0  0  0  0
    2.9443    0.9606    6.8423 H   0  0  0  0  0  0  0  0  0  0  0  0
    3.9866   -0.5519    5.1625 H   0  0  0  0  0  0  0  0  0  0  0  0
    2.5985    4.0634    3.8529 H   0  0  0  0  0  0  0  0  0  0  0  0
    3.6207    2.5491    2.1581 H   0  0  0  0  0  0  0  0  0  0  0  0
    6.3067    0.3466   -0.9012 H   0  0  0  0  0  0  0  0  0  0  0  0
    1.8472    0.0148    2.1640 H   0  0  0  0  0  0  0  0  0  0  0  0
    4.3138   -0.0079   -2.1782 H   0  0  0  0  0  0  0  0  0  0  0  0
    1.8453    0.0183   -2.1700 H   0  0  0  0  0  0  0  0  0  0  0  0
  1  2  1  0  0  0  0
  2  3  1  0  0  0  0
  3  4  2  0  0  0  0
  3 31  1  0  0  0  0
  4  5  1  0  0  0  0
  5  6  2  0  0  0  0
  5 11  1  0  0  0  0
  7  6  1  0  0  0  0
  7 24  1  6  0  0  0
  7  8  1  0  0  0  0
  8 10  2  0  0  0  0
  9  8  1  0  0  0  0
  9 23  1  0  0  0  0
 11 12  1  0  0  0  0
 12 27  1  0  0  0  0
 12 13  2  0  0  0  0
 13 26  1  0  0  0  0
 14 13  1  0  0  0  0
 14 25  1  0  0  0  0
 15 11  2  0  0  0  0
 15 16  1  0  0  0  0
 16 14  2  0  0  0  0
 17  4  1  0  0  0  0
 18 17  1  0  0  0  0
 18 19  1  0  0  0  0
 19  7  1  0  0  0  0
 20 19  2  0  0  0  0
 21  2  2  0  0  0  0
 21 22  1  0  0  0  0
 22 17  2  0  0  0  0
 28 16  1  0  0  0  0
 29 15  1  0  0  0  0
 30 18  1  0  0  0  0
 32 22  1  0  0  0  0
 33 21  1  0  0  0  0
M  END