B11
  Mrv0541 08111511043D          

 48 49  0  0  0  0            999 V2000
    0.0000    0.0000    0.0000 Cl  0  0  0  0  0  0  0  0  0  0  0  0
    1.7011    0.0000    0.0000 C   0  0  0  0  0  0  0  0  0  0  0  0
    2.3932    0.0000    1.1875 C   0  0  0  0  0  0  0  0  0  0  0  0
    3.8266   -0.0013    1.1837 C   0  0  0  0  0  0  0  0  0  0  0  0
    4.4810    0.0045    2.4003 N   0  0  0  0  0  0  0  0  0  0  0  0
    5.8023    0.0005    2.3776 C   0  0  0  0  0  0  0  0  0  0  0  0
    4.5164   -0.0080   -0.0685 C   0  0  0  0  0  0  0  0  0  0  0  0
    5.9697   -0.0156   -0.0483 C   0  0  0  0  0  0  0  0  0  0  0  0
    6.6842    0.0597   -1.2374 N   0  0  1  0  0  0  0  0  0  0  0  0
    8.1067   -0.2334   -1.2797 C   0  0  2  0  0  0  0  0  0  0  0  0
    8.7218    0.1450   -2.6374 C   0  0  1  0  0  0  0  0  0  0  0  0
    8.5718    1.6012   -3.0094 C   0  0  2  0  0  0  0  0  0  0  0  0
    9.1552    2.5838   -1.9945 C   0  0  1  0  0  0  0  0  0  0  0  0
   10.5490    2.3430   -1.6474 N   0  0  2  0  0  0  0  0  0  0  0  0
   10.9046    2.8827   -0.3404 C   0  0  1  0  0  0  0  0  0  0  0  0
   10.3646    2.0753    0.8300 C   0  0  0  0  0  0  0  0  0  0  0  0
   11.4719    2.7631   -2.6952 C   0  0  1  0  0  0  0  0  0  0  0  0
   12.8003    2.0226   -2.6756 C   0  0  0  0  0  0  0  0  0  0  0  0
    8.4523   -1.6973   -0.9918 C   0  0  0  0  0  0  0  0  0  0  0  0
    6.5948   -0.0170    1.2014 C   0  0  0  0  0  0  0  0  0  0  0  0
    2.3819    0.0021   -1.2416 C   0  0  0  0  0  0  0  0  0  0  0  0
    3.7551   -0.0004   -1.2652 C   0  0  0  0  0  0  0  0  0  0  0  0
    6.3032    0.0065    3.3646 H   0  0  0  0  0  0  0  0  0  0  0  0
    9.2519    2.1397    0.8974 H   0  0  0  0  0  0  0  0  0  0  0  0
   10.6507    0.9998    0.7429 H   0  0  0  0  0  0  0  0  0  0  0  0
   10.7975    2.4850    1.7747 H   0  0  0  0  0  0  0  0  0  0  0  0
   12.0297    2.8922   -0.2632 H   0  0  0  0  0  0  0  0  0  0  0  0
   10.5550    3.9522   -0.2298 H   0  0  0  0  0  0  0  0  0  0  0  0
   13.3893    2.2590   -1.7578 H   0  0  0  0  0  0  0  0  0  0  0  0
   12.6436    0.9182   -2.7181 H   0  0  0  0  0  0  0  0  0  0  0  0
   13.3961    2.3347   -3.5671 H   0  0  0  0  0  0  0  0  0  0  0  0
   10.9831    2.5687   -3.6926 H   0  0  0  0  0  0  0  0  0  0  0  0
   11.6780    3.8733   -2.6386 H   0  0  0  0  0  0  0  0  0  0  0  0
    9.0120    3.6263   -2.4098 H   0  0  0  0  0  0  0  0  0  0  0  0
    8.5381    2.5177   -1.0533 H   0  0  0  0  0  0  0  0  0  0  0  0
    7.4854    1.8590   -3.1253 H   0  0  0  0  0  0  0  0  0  0  0  0
    9.0556    1.7575   -4.0107 H   0  0  0  0  0  0  0  0  0  0  0  0
    9.8122   -0.1174   -2.5866 H   0  0  0  0  0  0  0  0  0  0  0  0
    8.2620   -0.4848   -3.4453 H   0  0  0  0  0  0  0  0  0  0  0  0
    8.0287   -2.0174   -0.0094 H   0  0  0  0  0  0  0  0  0  0  0  0
    9.5618   -1.8118   -0.9555 H   0  0  0  0  0  0  0  0  0  0  0  0
    8.0513   -2.3670   -1.7893 H   0  0  0  0  0  0  0  0  0  0  0  0
    8.6069    0.4086   -0.4904 H   0  0  0  0  0  0  0  0  0  0  0  0
    6.1940   -0.2412   -2.0518 H   0  0  0  0  0  0  0  0  0  0  0  0
    7.6873   -0.0281    1.3080 H   0  0  0  0  0  0  0  0  0  0  0  0
    1.8646    0.0024    2.1551 H   0  0  0  0  0  0  0  0  0  0  0  0
    4.2511    0.0138   -2.2476 H   0  0  0  0  0  0  0  0  0  0  0  0
    1.8034    0.0084   -2.1777 H   0  0  0  0  0  0  0  0  0  0  0  0
  2  1  1  0  0  0  0
  2  3  1  0  0  0  0
  3 46  1  0  0  0  0
  4  3  2  0  0  0  0
  4  5  1  0  0  0  0
  6  5  2  0  0  0  0
  6 23  1  0  0  0  0
  7  4  1  0  0  0  0
  7  8  1  0  0  0  0
  8 20  2  0  0  0  0
  9  8  1  0  0  0  0
 10  9  1  0  0  0  0
 10 19  1  0  0  0  0
 10 43  1  1  0  0  0
 11 10  1  0  0  0  0
 11 38  1  0  0  0  0
 12 11  1  0  0  0  0
 12 13  1  0  0  0  0
 13 14  1  0  0  0  0
 13 35  1  0  0  0  0
 14 15  1  0  0  0  0
 15 27  1  0  0  0  0
 15 28  1  0  0  0  0
 15 16  1  0  0  0  0
 16 24  1  0  0  0  0
 16 26  1  0  0  0  0
 17 14  1  0  0  0  0
 17 18  1  0  0  0  0
 17 33  1  0  0  0  0
 18 29  1  0  0  0  0
 19 41  1  0  0  0  0
 19 40  1  0  0  0  0
 20  6  1  0  0  0  0
 20 45  1  0  0  0  0
 21  2  2  0  0  0  0
 22  7  2  0  0  0  0
 22 21  1  0  0  0  0
 25 16  1  0  0  0  0
 30 18  1  0  0  0  0
 31 18  1  0  0  0  0
 32 17  1  0  0  0  0
 34 13  1  0  0  0  0
 36 12  1  0  0  0  0
 37 12  1  0  0  0  0
 39 11  1  0  0  0  0
 42 19  1  0  0  0  0
 44  9  1  0  0  0  0
 47 22  1  0  0  0  0
 48 21  1  0  0  0  0
M  END