B12
  Mrv0541 08111511043D          

 38 39  0  0  0  0            999 V2000
    0.0000    0.0000    0.0000 Cl  0  0  0  0  0  0  0  0  0  0  0  0
    1.7009    0.0000    0.0000 C   0  0  0  0  0  0  0  0  0  0  0  0
    2.3948    0.0000    1.2134 C   0  0  0  0  0  0  0  0  0  0  0  0
    3.7879   -0.0003    1.2069 C   0  0  0  0  0  0  0  0  0  0  0  0
    4.4971   -0.0006   -0.0007 C   0  0  0  0  0  0  0  0  0  0  0  0
    5.9963    0.0076    0.0245 C   0  0  2  0  0  0  0  0  0  0  0  0
    6.5440    1.1756   -0.7896 C   0  0  1  0  0  0  0  0  0  0  0  0
    8.0507    1.3149   -0.5787 C   0  0  2  0  0  0  0  0  0  0  0  0
    8.6164    2.5384   -1.1335 N   0  0  2  0  0  0  0  0  0  0  0  0
    8.4040    2.6810   -2.5558 C   0  0  0  0  0  0  0  0  0  0  0  0
   10.0018    2.7102   -0.7545 C   0  0  0  0  0  0  0  0  0  0  0  0
    6.5397   -1.3292   -0.4341 C   0  0  0  0  0  0  0  0  0  0  0  0
    6.4632   -1.6703   -1.7443 N   0  0  0  0  0  0  0  0  0  0  0  0
    6.9452   -2.8720   -2.1066 C   0  0  0  0  0  0  0  0  0  0  0  0
    7.1013   -2.1908    0.5355 C   0  0  0  0  0  0  0  0  0  0  0  0
    7.5949   -3.4332    0.1366 C   0  0  0  0  0  0  0  0  0  0  0  0
    7.5200   -3.7903   -1.2094 C   0  0  0  0  0  0  0  0  0  0  0  0
    2.3960    0.0001   -1.2129 C   0  0  0  0  0  0  0  0  0  0  0  0
    3.7894    0.0005   -1.2084 C   0  0  0  0  0  0  0  0  0  0  0  0
    7.3020    2.7556   -2.7501 H   0  0  0  0  0  0  0  0  0  0  0  0
    8.8159    1.8231   -3.1553 H   0  0  0  0  0  0  0  0  0  0  0  0
    8.8916    3.6275   -2.9082 H   0  0  0  0  0  0  0  0  0  0  0  0
   10.0786    2.7041    0.3643 H   0  0  0  0  0  0  0  0  0  0  0  0
   10.3597    3.7036   -1.1321 H   0  0  0  0  0  0  0  0  0  0  0  0
   10.6778    1.9088   -1.1621 H   0  0  0  0  0  0  0  0  0  0  0  0
    8.5544    0.3962   -1.0033 H   0  0  0  0  0  0  0  0  0  0  0  0
    8.2574    1.3306    0.5301 H   0  0  0  0  0  0  0  0  0  0  0  0
    6.3174    1.0251   -1.8767 H   0  0  0  0  0  0  0  0  0  0  0  0
    6.0230    2.1136   -0.4615 H   0  0  0  0  0  0  0  0  0  0  0  0
    6.8624   -3.1100   -3.1827 H   0  0  0  0  0  0  0  0  0  0  0  0
    7.8948   -4.7579   -1.5658 H   0  0  0  0  0  0  0  0  0  0  0  0
    8.0348   -4.1197    0.8746 H   0  0  0  0  0  0  0  0  0  0  0  0
    7.1451   -1.8853    1.5895 H   0  0  0  0  0  0  0  0  0  0  0  0
    6.3320    0.1522    1.0947 H   0  0  0  0  0  0  0  0  0  0  0  0
    4.3302    0.0009    2.1646 H   0  0  0  0  0  0  0  0  0  0  0  0
    1.8476    0.0005    2.1679 H   0  0  0  0  0  0  0  0  0  0  0  0
    4.3349   -0.0043   -2.1654 H   0  0  0  0  0  0  0  0  0  0  0  0
    1.8491   -0.0009   -2.1677 H   0  0  0  0  0  0  0  0  0  0  0  0
  2  1  1  0  0  0  0
  2  3  1  0  0  0  0
  3 36  1  0  0  0  0
  4  3  2  0  0  0  0
  4 35  1  0  0  0  0
  5  4  1  0  0  0  0
  5  6  1  0  0  0  0
  6 34  1  1  0  0  0
  7  6  1  0  0  0  0
  7  8  1  0  0  0  0
  7 29  1  0  0  0  0
  8 27  1  0  0  0  0
  9  8  1  0  0  0  0
  9 11  1  0  0  0  0
 10  9  1  0  0  0  0
 11 23  1  0  0  0  0
 12  6  1  0  0  0  0
 12 15  1  0  0  0  0
 13 12  2  0  0  0  0
 14 13  1  0  0  0  0
 14 17  2  0  0  0  0
 15 33  1  0  0  0  0
 16 15  2  0  0  0  0
 16 32  1  0  0  0  0
 17 16  1  0  0  0  0
 18  2  2  0  0  0  0
 18 19  1  0  0  0  0
 19  5  2  0  0  0  0
 20 10  1  0  0  0  0
 21 10  1  0  0  0  0
 22 10  1  0  0  0  0
 24 11  1  0  0  0  0
 25 11  1  0  0  0  0
 26  8  1  0  0  0  0
 28  7  1  0  0  0  0
 30 14  1  0  0  0  0
 31 17  1  0  0  0  0
 37 19  1  0  0  0  0
 38 18  1  0  0  0  0
M  END