B13
  Mrv0541 08111511043D          

 33 33  0  0  0  0            999 V2000
    0.0000    0.0000    0.0000 C   0  0  0  0  0  0  0  0  0  0  0  0
    1.3479    0.0000    0.0000 N   0  0  0  0  0  0  0  0  0  0  0  0
    1.7338    0.0000    1.3491 C   0  0  0  0  0  0  0  0  0  0  0  0
    0.5803    0.0009    2.1736 C   0  0  0  0  0  0  0  0  0  0  0  0
   -0.5130    0.0012    1.2995 N   0  0  0  0  0  0  0  0  0  0  0  0
    3.1316    0.0045    1.7997 C   0  0  2  0  0  0  0  0  0  0  0  0
    0.4629   -0.0066    3.6390 C   0  0  0  0  0  0  0  0  0  0  0  0
    3.7097   -1.6661    2.0273 S   0  0  0  0  0  0  0  0  0  0  0  0
    5.2554   -1.7044    1.1701 C   0  0  2  0  0  0  0  0  0  0  0  0
    4.3113   -1.4676   -1.1626 N   0  0  2  0  0  0  0  0  0  0  0  0
    5.1476   -2.2188   -0.2594 C   0  0  2  0  0  0  0  0  0  0  0  0
    3.7810    0.5791   -2.3962 N   0  0  1  0  0  0  0  0  0  0  0  0
    4.7701   -0.1988   -1.6431 C   0  0  0  0  0  0  0  0  0  0  0  0
    6.5193    1.3943   -2.0331 C   0  0  0  0  0  0  0  0  0  0  0  0
    4.1114    0.6693   -4.9064 N   0  0  0  0  0  0  0  0  0  0  0  0
    5.9941    0.2127   -1.4374 N   0  0  0  0  0  0  0  0  0  0  0  0
    3.9541    0.5805   -3.7513 C   0  0  0  0  0  0  0  0  0  0  0  0
   -0.6397    0.0007   -0.8890 H   0  0  0  0  0  0  0  0  0  0  0  0
   -1.4618   -0.0025    1.5634 H   0  0  0  0  0  0  0  0  0  0  0  0
   -0.2095    0.8139    3.9954 H   0  0  0  0  0  0  0  0  0  0  0  0
    1.4732    0.1368    4.0973 H   0  0  0  0  0  0  0  0  0  0  0  0
    0.0496   -0.9840    3.9965 H   0  0  0  0  0  0  0  0  0  0  0  0
    3.2071    0.5229    2.7893 H   0  0  0  0  0  0  0  0  0  0  0  0
    3.7900    0.5465    1.0747 H   0  0  0  0  0  0  0  0  0  0  0  0
    5.8951   -2.4157    1.7517 H   0  0  0  0  0  0  0  0  0  0  0  0
    5.7476   -0.7023    1.1903 H   0  0  0  0  0  0  0  0  0  0  0  0
    4.7079   -3.2595   -0.2356 H   0  0  0  0  0  0  0  0  0  0  0  0
    6.1876   -2.2917   -0.6899 H   0  0  0  0  0  0  0  0  0  0  0  0
    3.3578   -1.4407   -0.8462 H   0  0  0  0  0  0  0  0  0  0  0  0
    2.8238    0.4102   -2.1355 H   0  0  0  0  0  0  0  0  0  0  0  0
    5.9714    2.3207   -1.7087 H   0  0  0  0  0  0  0  0  0  0  0  0
    6.5012    1.3584   -3.1567 H   0  0  0  0  0  0  0  0  0  0  0  0
    7.5875    1.4721   -1.6949 H   0  0  0  0  0  0  0  0  0  0  0  0
  1  2  2  0  0  0  0
  1  5  1  0  0  0  0
  2  3  1  0  0  0  0
  3  6  1  0  0  0  0
  3  4  2  0  0  0  0
  4  7  1  0  0  0  0
  5  4  1  0  0  0  0
  5 19  1  0  0  0  0
  6  8  1  0  0  0  0
  6 23  1  0  0  0  0
  7 20  1  0  0  0  0
  7 22  1  0  0  0  0
  7 21  1  0  0  0  0
  9  8  1  0  0  0  0
  9 26  1  0  0  0  0
  9 25  1  0  0  0  0
 10 29  1  0  0  0  0
 10 11  1  0  0  0  0
 11  9  1  0  0  0  0
 11 27  1  0  0  0  0
 12 30  1  0  0  0  0
 12 13  1  0  0  0  0
 13 10  1  0  0  0  0
 13 16  2  0  0  0  0
 14 31  1  0  0  0  0
 14 33  1  0  0  0  0
 14 16  1  0  0  0  0
 15 17  3  0  0  0  0
 17 12  1  0  0  0  0
 18  1  1  0  0  0  0
 24  6  1  0  0  0  0
 28 11  1  0  0  0  0
 32 14  1  0  0  0  0
M  END