B15
  Mrv0541 08111511043D          

 23 24  0  0  0  0            999 V2000
    0.0000    0.0000    0.0000 Cl  0  0  0  0  0  0  0  0  0  0  0  0
    1.7035    0.0000    0.0000 C   0  0  0  0  0  0  0  0  0  0  0  0
    2.4160    0.0000    1.2243 C   0  0  0  0  0  0  0  0  0  0  0  0
    1.7539   -0.0792    2.4743 N   0  0  1  0  0  0  0  0  0  0  0  0
    1.8111    1.0594    3.3270 C   0  0  0  0  0  0  0  0  0  0  0  0
    1.0733    1.0045    4.5961 N   0  0  2  0  0  0  0  0  0  0  0  0
    1.4407    2.2439    5.2889 C   0  0  2  0  0  0  0  0  0  0  0  0
    2.4775    2.1848    3.0993 N   0  0  0  0  0  0  0  0  0  0  0  0
    2.3412    3.0309    4.2782 C   0  0  1  0  0  0  0  0  0  0  0  0
    3.8299   -0.0067    1.1592 C   0  0  0  0  0  0  0  0  0  0  0  0
    4.7679   -0.0396    2.5742 Cl  0  0  0  0  0  0  0  0  0  0  0  0
    4.4892    0.0034   -0.0728 C   0  0  0  0  0  0  0  0  0  0  0  0
    2.3698   -0.0063   -1.2256 C   0  0  0  0  0  0  0  0  0  0  0  0
    3.7618    0.0020   -1.2591 C   0  0  0  0  0  0  0  0  0  0  0  0
    1.9822    2.0556    6.2510 H   0  0  0  0  0  0  0  0  0  0  0  0
    0.4974    2.8088    5.5057 H   0  0  0  0  0  0  0  0  0  0  0  0
    1.2720    0.1773    5.1214 H   0  0  0  0  0  0  0  0  0  0  0  0
    1.8581    3.9995    3.9885 H   0  0  0  0  0  0  0  0  0  0  0  0
    3.3523    3.2465    4.7099 H   0  0  0  0  0  0  0  0  0  0  0  0
    0.8212   -0.4471    2.4034 H   0  0  0  0  0  0  0  0  0  0  0  0
    5.5903    0.0096   -0.1019 H   0  0  0  0  0  0  0  0  0  0  0  0
    4.2871    0.0082   -2.2258 H   0  0  0  0  0  0  0  0  0  0  0  0
    1.7940   -0.0094   -2.1642 H   0  0  0  0  0  0  0  0  0  0  0  0
  1  2  1  0  0  0  0
  2  3  1  0  0  0  0
  3  4  1  0  0  0  0
  4  5  1  0  0  0  0
  5  6  1  0  0  0  0
  6 17  1  0  0  0  0
  6  7  1  0  0  0  0
  7 16  1  0  0  0  0
  7 15  1  0  0  0  0
  8  5  2  0  0  0  0
  8  9  1  0  0  0  0
  9  7  1  0  0  0  0
  9 19  1  0  0  0  0
 10  3  2  0  0  0  0
 10 11  1  0  0  0  0
 12 10  1  0  0  0  0
 13  2  2  0  0  0  0
 14 12  2  0  0  0  0
 14 13  1  0  0  0  0
 18  9  1  0  0  0  0
 20  4  1  0  0  0  0
 21 12  1  0  0  0  0
 22 14  1  0  0  0  0
 23 13  1  0  0  0  0
M  END