B20
  Mrv0541 08111511043D          

 54 55  0  0  0  0            999 V2000
    0.0000    0.0000    0.0000 O   0  0  0  0  0  0  0  0  0  0  0  0
    1.2486    0.0000    0.0000 C   0  0  0  0  0  0  0  0  0  0  0  0
    1.9146    0.0000    1.1988 N   0  0  0  0  0  0  0  0  0  0  0  0
    2.0994   -0.0745   -1.2878 C   0  0  2  0  0  0  0  0  0  0  0  0
    2.4422   -1.5608   -1.4768 C   0  0  2  0  0  0  0  0  0  0  0  0
    1.1878   -2.4387   -1.5572 C   0  0  2  0  0  0  0  0  0  0  0  0
    1.5038   -3.8485   -1.7254 N   0  0  1  0  0  0  0  0  0  0  0  0
    0.5771   -4.7576   -1.0528 C   0  0  1  0  0  0  0  0  0  0  0  0
    0.8979   -4.8795    0.4407 C   0  0  0  0  0  0  0  0  0  0  0  0
   -0.9131   -4.4343   -1.1922 C   0  0  0  0  0  0  0  0  0  0  0  0
    1.8602   -4.2132   -3.0958 C   0  0  1  0  0  0  0  0  0  0  0  0
    2.7575   -5.4530   -3.1505 C   0  0  0  0  0  0  0  0  0  0  0  0
    0.6989   -4.4176   -4.0704 C   0  0  0  0  0  0  0  0  0  0  0  0
    3.3459    0.7673   -1.1198 C   0  0  0  0  0  0  0  0  0  0  0  0
    3.2039    2.0961   -0.6887 C   0  0  0  0  0  0  0  0  0  0  0  0
    4.3173    2.9164   -0.5331 C   0  0  0  0  0  0  0  0  0  0  0  0
    5.5931    2.4222   -0.8091 C   0  0  0  0  0  0  0  0  0  0  0  0
    4.6271    0.2823   -1.3987 C   0  0  0  0  0  0  0  0  0  0  0  0
    5.7428    1.1071   -1.2422 C   0  0  0  0  0  0  0  0  0  0  0  0
    1.3579    0.4988   -2.4921 C   0  0  0  0  0  0  0  0  0  0  0  0
    1.7448    0.0783   -3.7251 N   0  0  0  0  0  0  0  0  0  0  0  0
    1.1415    0.6204   -4.7951 C   0  0  0  0  0  0  0  0  0  0  0  0
    0.3640    1.4879   -2.3237 C   0  0  0  0  0  0  0  0  0  0  0  0
   -0.2527    2.0347   -3.4509 C   0  0  0  0  0  0  0  0  0  0  0  0
    0.1363    1.6014   -4.7167 C   0  0  0  0  0  0  0  0  0  0  0  0
    1.3988    0.0007    2.0431 H   0  0  0  0  0  0  0  0  0  0  0  0
    2.9012    0.0134    1.2358 H   0  0  0  0  0  0  0  0  0  0  0  0
    1.9608   -5.1815    0.5952 H   0  0  0  0  0  0  0  0  0  0  0  0
    0.2343   -5.6574    0.8884 H   0  0  0  0  0  0  0  0  0  0  0  0
    0.7215   -3.9135    0.9704 H   0  0  0  0  0  0  0  0  0  0  0  0
   -1.5105   -5.2866   -0.7888 H   0  0  0  0  0  0  0  0  0  0  0  0
   -1.1818   -3.5149   -0.6192 H   0  0  0  0  0  0  0  0  0  0  0  0
   -1.1932   -4.2777   -2.2610 H   0  0  0  0  0  0  0  0  0  0  0  0
    0.7395   -5.7820   -1.5090 H   0  0  0  0  0  0  0  0  0  0  0  0
    3.6068   -5.3644   -2.4324 H   0  0  0  0  0  0  0  0  0  0  0  0
    3.1700   -5.5488   -4.1836 H   0  0  0  0  0  0  0  0  0  0  0  0
    2.1857   -6.3811   -2.9131 H   0  0  0  0  0  0  0  0  0  0  0  0
    0.0322   -3.5225   -4.0902 H   0  0  0  0  0  0  0  0  0  0  0  0
    0.0924   -5.3109   -3.7877 H   0  0  0  0  0  0  0  0  0  0  0  0
    1.1060   -4.5779   -5.0973 H   0  0  0  0  0  0  0  0  0  0  0  0
    2.4756   -3.3483   -3.4959 H   0  0  0  0  0  0  0  0  0  0  0  0
    0.5310   -2.0564   -2.3916 H   0  0  0  0  0  0  0  0  0  0  0  0
    0.6100   -2.3127   -0.5960 H   0  0  0  0  0  0  0  0  0  0  0  0
    3.0747   -1.8919   -0.6108 H   0  0  0  0  0  0  0  0  0  0  0  0
    3.0544   -1.6854   -2.4076 H   0  0  0  0  0  0  0  0  0  0  0  0
    6.4737    3.0696   -0.6888 H   0  0  0  0  0  0  0  0  0  0  0  0
    4.1897    3.9556   -0.1962 H   0  0  0  0  0  0  0  0  0  0  0  0
    2.1970    2.4917   -0.4805 H   0  0  0  0  0  0  0  0  0  0  0  0
    6.7446    0.7123   -1.4678 H   0  0  0  0  0  0  0  0  0  0  0  0
    4.7780   -0.7488   -1.7528 H   0  0  0  0  0  0  0  0  0  0  0  0
    1.4893    0.2438   -5.7740 H   0  0  0  0  0  0  0  0  0  0  0  0
   -0.3213    2.0063   -5.6278 H   0  0  0  0  0  0  0  0  0  0  0  0
   -1.0359    2.7979   -3.3349 H   0  0  0  0  0  0  0  0  0  0  0  0
    0.0568    1.8132   -1.3190 H   0  0  0  0  0  0  0  0  0  0  0  0
  2  1  2  0  0  0  0
  2  3  1  0  0  0  0
  3 27  1  0  0  0  0
  3 26  1  0  0  0  0
  4  2  1  1  0  0  0
  4 14  1  0  0  0  0
  5  4  1  0  0  0  0
  5 44  1  0  0  0  0
  6  5  1  0  0  0  0
  6 43  1  0  0  0  0
  7  6  1  0  0  0  0
  7  8  1  0  0  0  0
  8  9  1  0  0  0  0
  9 28  1  0  0  0  0
  9 29  1  0  0  0  0
  9 30  1  0  0  0  0
 10  8  1  0  0  0  0
 10 31  1  0  0  0  0
 10 32  1  0  0  0  0
 11  7  1  0  0  0  0
 12 11  1  0  0  0  0
 12 37  1  0  0  0  0
 12 35  1  0  0  0  0
 13 11  1  0  0  0  0
 13 39  1  0  0  0  0
 14 15  1  0  0  0  0
 15 16  2  0  0  0  0
 15 48  1  0  0  0  0
 16 47  1  0  0  0  0
 17 16  1  0  0  0  0
 17 46  1  0  0  0  0
 18 14  2  0  0  0  0
 18 19  1  0  0  0  0
 19 17  2  0  0  0  0
 20  4  1  0  0  0  0
 20 23  1  0  0  0  0
 21 20  2  0  0  0  0
 22 21  1  0  0  0  0
 22 25  2  0  0  0  0
 23 54  1  0  0  0  0
 24 23  2  0  0  0  0
 24 53  1  0  0  0  0
 25 24  1  0  0  0  0
 33 10  1  0  0  0  0
 34  8  1  0  0  0  0
 36 12  1  0  0  0  0
 38 13  1  0  0  0  0
 40 13  1  0  0  0  0
 41 11  1  0  0  0  0
 42  6  1  0  0  0  0
 45  5  1  0  0  0  0
 49 19  1  0  0  0  0
 50 18  1  0  0  0  0
 51 22  1  0  0  0  0
 52 25  1  0  0  0  0
M  END