B22
  Mrv0541 08111511043D          

 42 44  0  0  0  0            999 V2000
    0.0000    0.0000    0.0000 O   0  0  0  0  0  0  0  0  0  0  0  0
    1.3807    0.0000    0.0000 C   0  0  0  0  0  0  0  0  0  0  0  0
    2.2428    0.0000    1.1109 C   0  0  0  0  0  0  0  0  0  0  0  0
    1.7912   -0.0123    2.5042 C   0  0  0  0  0  0  0  0  0  0  0  0
    0.7859   -1.0337    2.8328 C   0  0  0  0  0  0  0  0  0  0  0  0
   -0.4607   -0.9672    2.1875 C   0  0  0  0  0  0  0  0  0  0  0  0
   -0.6991    0.1529    1.2334 C   0  0  2  0  0  0  0  0  0  0  0  0
    1.9044   -0.0170   -1.3130 C   0  0  0  0  0  0  0  0  0  0  0  0
    3.2751   -0.0481   -1.5150 C   0  0  0  0  0  0  0  0  0  0  0  0
    4.1434   -0.0630   -0.4202 C   0  0  0  0  0  0  0  0  0  0  0  0
    3.6289   -0.0406    0.8687 C   0  0  0  0  0  0  0  0  0  0  0  0
    1.0346   -2.0467    3.7619 C   0  0  0  0  0  0  0  0  0  0  0  0
    0.0474   -2.9929    4.0398 C   0  0  0  0  0  0  0  0  0  0  0  0
   -1.1872   -2.9291    3.3958 C   0  0  0  0  0  0  0  0  0  0  0  0
   -1.4423   -1.9169    2.4693 C   0  0  0  0  0  0  0  0  0  0  0  0
    2.2354    0.8209    3.4629 C   0  0  0  0  0  0  0  0  0  0  0  0
    3.1605    1.9620    3.2800 C   0  0  1  0  0  0  0  0  0  0  0  0
    4.4072    1.7757    4.1498 C   0  0  2  0  0  0  0  0  0  0  0  0
    5.2169    2.9789    4.2857 N   0  0  1  0  0  0  0  0  0  0  0  0
    6.2533    2.8245    5.2826 C   0  0  0  0  0  0  0  0  0  0  0  0
    5.7192    3.4840    3.0287 C   0  0  0  0  0  0  0  0  0  0  0  0
    5.2303   -0.0964   -0.5799 H   0  0  0  0  0  0  0  0  0  0  0  0
    3.6778   -0.0642   -2.5386 H   0  0  0  0  0  0  0  0  0  0  0  0
    1.2035   -0.0117   -2.1604 H   0  0  0  0  0  0  0  0  0  0  0  0
    4.3136   -0.0621    1.7320 H   0  0  0  0  0  0  0  0  0  0  0  0
    1.8647    0.6930    4.4964 H   0  0  0  0  0  0  0  0  0  0  0  0
    0.2469   -3.7921    4.7688 H   0  0  0  0  0  0  0  0  0  0  0  0
   -1.9623   -3.6778    3.6153 H   0  0  0  0  0  0  0  0  0  0  0  0
   -2.4163   -1.8685    1.9598 H   0  0  0  0  0  0  0  0  0  0  0  0
   -1.7724    0.1865    0.8944 H   0  0  0  0  0  0  0  0  0  0  0  0
   -0.4163    1.1324    1.7062 H   0  0  0  0  0  0  0  0  0  0  0  0
    2.0098   -2.0976    4.2679 H   0  0  0  0  0  0  0  0  0  0  0  0
    3.4571    2.0759    2.2036 H   0  0  0  0  0  0  0  0  0  0  0  0
    2.6229    2.9036    3.5803 H   0  0  0  0  0  0  0  0  0  0  0  0
    5.0087    0.9177    3.7250 H   0  0  0  0  0  0  0  0  0  0  0  0
    4.0777    1.4764    5.1859 H   0  0  0  0  0  0  0  0  0  0  0  0
    7.0109    2.0361    5.0182 H   0  0  0  0  0  0  0  0  0  0  0  0
    6.7865    3.8034    5.4047 H   0  0  0  0  0  0  0  0  0  0  0  0
    5.7812    2.5495    6.2620 H   0  0  0  0  0  0  0  0  0  0  0  0
    6.3264    4.4073    3.2203 H   0  0  0  0  0  0  0  0  0  0  0  0
    6.3616    2.7436    2.4770 H   0  0  0  0  0  0  0  0  0  0  0  0
    4.8501    3.7589    2.3754 H   0  0  0  0  0  0  0  0  0  0  0  0
  1  2  1  0  0  0  0
  1  7  1  0  0  0  0
  2  3  1  0  0  0  0
  3  4  1  0  0  0  0
  4  5  1  0  0  0  0
  4 16  2  0  0  0  0
  5 12  1  0  0  0  0
  6  5  2  0  0  0  0
  6 15  1  0  0  0  0
  7  6  1  0  0  0  0
  7 31  1  0  0  0  0
  8  2  2  0  0  0  0
  9  8  1  0  0  0  0
  9 10  2  0  0  0  0
 10 11  1  0  0  0  0
 11  3  2  0  0  0  0
 11 25  1  0  0  0  0
 12 13  2  0  0  0  0
 12 32  1  0  0  0  0
 13 27  1  0  0  0  0
 14 13  1  0  0  0  0
 14 28  1  0  0  0  0
 15 14  2  0  0  0  0
 16 26  1  0  0  0  0
 17 16  1  0  0  0  0
 17 34  1  0  0  0  0
 17 18  1  0  0  0  0
 18 19  1  0  0  0  0
 18 36  1  0  0  0  0
 19 20  1  0  0  0  0
 20 38  1  0  0  0  0
 20 39  1  0  0  0  0
 21 19  1  0  0  0  0
 21 40  1  0  0  0  0
 22 10  1  0  0  0  0
 23  9  1  0  0  0  0
 24  8  1  0  0  0  0
 29 15  1  0  0  0  0
 30  7  1  0  0  0  0
 33 17  1  0  0  0  0
 35 18  1  0  0  0  0
 37 20  1  0  0  0  0
 41 21  1  0  0  0  0
 42 21  1  0  0  0  0
M  END