B23
  Mrv0541 08111511043D          

 39 41  0  0  0  0            999 V2000
    0.0000    0.0000    0.0000 Cl  0  0  0  0  0  0  0  0  0  0  0  0
    1.6897    0.0000    0.0000 C   0  0  0  0  0  0  0  0  0  0  0  0
    2.4106    0.0000    1.1937 C   0  0  0  0  0  0  0  0  0  0  0  0
    3.8143   -0.0002    1.1448 C   0  0  0  0  0  0  0  0  0  0  0  0
    4.5526    0.0504    2.4076 C   0  0  0  0  0  0  0  0  0  0  0  0
    4.4196   -0.9903    3.3386 C   0  0  0  0  0  0  0  0  0  0  0  0
    5.0890   -0.9261    4.5559 C   0  0  0  0  0  0  0  0  0  0  0  0
    5.9007    0.1693    4.8773 C   0  0  0  0  0  0  0  0  0  0  0  0
    6.6813    0.2528    6.3594 S   0  0  1  0  0  0  0  0  0  0  0  0
    6.8905    1.5910    6.7190 O   0  0  0  0  0  0  0  0  0  0  0  0
    6.0375   -0.5782    7.2871 O   0  0  0  0  0  0  0  0  0  0  0  0
    8.1682   -0.4413    5.9409 C   0  0  0  0  0  0  0  0  0  0  0  0
    5.3525    1.1569    2.7242 C   0  0  0  0  0  0  0  0  0  0  0  0
    6.0140    1.2101    3.9471 C   0  0  0  0  0  0  0  0  0  0  0  0
    2.4045    0.0035   -1.2196 C   0  0  0  0  0  0  0  0  0  0  0  0
    3.7407   -0.0130   -1.2845 N   0  0  0  0  0  0  0  0  0  0  0  0
    4.4509   -0.0270   -0.1230 C   0  0  0  0  0  0  0  0  0  0  0  0
    5.9157   -0.0882   -0.2360 C   0  0  0  0  0  0  0  0  0  0  0  0
    6.6638   -1.0461    0.4579 C   0  0  0  0  0  0  0  0  0  0  0  0
    8.0471   -1.0757    0.2903 C   0  0  0  0  0  0  0  0  0  0  0  0
    6.6092    0.7986   -1.0923 C   0  0  0  0  0  0  0  0  0  0  0  0
    7.9399    0.7865   -1.2584 N   0  0  0  0  0  0  0  0  0  0  0  0
    8.6592   -0.1428   -0.5757 C   0  0  0  0  0  0  0  0  0  0  0  0
   10.1421   -0.1818   -0.7542 C   0  0  0  0  0  0  0  0  0  0  0  0
    8.6837    0.0929    5.1063 H   0  0  0  0  0  0  0  0  0  0  0  0
    8.8775   -0.4240    6.8073 H   0  0  0  0  0  0  0  0  0  0  0  0
    8.0801   -1.5108    5.6312 H   0  0  0  0  0  0  0  0  0  0  0  0
    4.9678   -1.7411    5.2926 H   0  0  0  0  0  0  0  0  0  0  0  0
    3.7804   -1.8553    3.1049 H   0  0  0  0  0  0  0  0  0  0  0  0
    6.6258    2.0951    4.2001 H   0  0  0  0  0  0  0  0  0  0  0  0
    5.4537    1.9848    2.0056 H   0  0  0  0  0  0  0  0  0  0  0  0
    1.8948    0.0082    2.1671 H   0  0  0  0  0  0  0  0  0  0  0  0
    8.6567   -1.8197    0.8205 H   0  0  0  0  0  0  0  0  0  0  0  0
    6.1649   -1.7642    1.1265 H   0  0  0  0  0  0  0  0  0  0  0  0
   10.5935    0.8139   -0.5181 H   0  0  0  0  0  0  0  0  0  0  0  0
   10.5941   -0.9498   -0.0812 H   0  0  0  0  0  0  0  0  0  0  0  0
   10.3961   -0.4379   -1.8134 H   0  0  0  0  0  0  0  0  0  0  0  0
    6.0612    1.5595   -1.6793 H   0  0  0  0  0  0  0  0  0  0  0  0
    1.8741    0.0159   -2.1906 H   0  0  0  0  0  0  0  0  0  0  0  0
  1  2  1  0  0  0  0
  2  3  1  0  0  0  0
  3 32  1  0  0  0  0
  4  3  2  0  0  0  0
  4  5  1  0  0  0  0
  5 13  2  0  0  0  0
  5  6  1  0  0  0  0
  6  7  2  0  0  0  0
  7  8  1  0  0  0  0
  7 28  1  0  0  0  0
  8  9  1  0  0  0  0
  9 10  2  0  0  0  0
  9 11  2  0  0  0  0
 12  9  1  0  0  0  0
 12 26  1  0  0  0  0
 13 14  1  0  0  0  0
 14  8  2  0  0  0  0
 14 30  1  0  0  0  0
 15  2  2  0  0  0  0
 16 15  1  0  0  0  0
 16 17  2  0  0  0  0
 17  4  1  0  0  0  0
 18 17  1  0  0  0  0
 18 19  1  0  0  0  0
 19 34  1  0  0  0  0
 20 19  2  0  0  0  0
 20 33  1  0  0  0  0
 21 18  2  0  0  0  0
 22 21  1  0  0  0  0
 22 23  2  0  0  0  0
 23 20  1  0  0  0  0
 24 23  1  0  0  0  0
 24 35  1  0  0  0  0
 24 36  1  0  0  0  0
 25 12  1  0  0  0  0
 27 12  1  0  0  0  0
 29  6  1  0  0  0  0
 31 13  1  0  0  0  0
 37 24  1  0  0  0  0
 38 21  1  0  0  0  0
 39 15  1  0  0  0  0
M  END