B25
  Mrv0541 08111511043D          

 40 41  0  0  0  0            999 V2000
    0.0000    0.0000    0.0000 C   0  0  0  0  0  0  0  0  0  0  0  0
    1.3948    0.0000    0.0000 C   0  0  0  0  0  0  0  0  0  0  0  0
    2.0940    0.0000    1.2060 C   0  0  0  0  0  0  0  0  0  0  0  0
    1.3997   -0.0058    2.4205 C   0  0  0  0  0  0  0  0  0  0  0  0
    2.1411    0.0202    3.7238 C   0  0  2  0  0  0  0  0  0  0  0  0
    2.6970    1.4135    4.0309 C   0  0  1  0  0  0  0  0  0  0  0  0
    1.5799    2.3061    4.5656 C   0  0  2  0  0  0  0  0  0  0  0  0
    2.0162    3.6649    4.8183 N   0  0  2  0  0  0  0  0  0  0  0  0
    0.9423    4.5576    5.1624 C   0  0  0  0  0  0  0  0  0  0  0  0
    3.3106   -0.8240    3.6776 O   0  0  0  0  0  0  0  0  0  0  0  0
    3.1185   -2.1718    3.8826 C   0  0  0  0  0  0  0  0  0  0  0  0
    1.8759   -2.8188    3.8410 C   0  0  0  0  0  0  0  0  0  0  0  0
    1.8160   -4.1949    4.0477 C   0  0  0  0  0  0  0  0  0  0  0  0
    2.9839   -4.9187    4.2909 C   0  0  0  0  0  0  0  0  0  0  0  0
    2.9123   -6.4229    4.4995 C   0  0  1  0  0  0  0  0  0  0  0  0
    3.8876   -6.9352    5.3213 F   0  0  0  0  0  0  0  0  0  0  0  0
    1.7377   -6.8694    5.0569 F   0  0  0  0  0  0  0  0  0  0  0  0
    3.0315   -7.1610    3.3454 F   0  0  0  0  0  0  0  0  0  0  0  0
    4.3012   -2.9010    4.1256 C   0  0  0  0  0  0  0  0  0  0  0  0
    4.2245   -4.2722    4.3262 C   0  0  0  0  0  0  0  0  0  0  0  0
   -0.6960   -0.0036    1.2091 C   0  0  0  0  0  0  0  0  0  0  0  0
    0.0001   -0.0090    2.4168 C   0  0  0  0  0  0  0  0  0  0  0  0
   -0.5510    0.0012   -0.9520 H   0  0  0  0  0  0  0  0  0  0  0  0
    1.9459   -0.0004   -0.9521 H   0  0  0  0  0  0  0  0  0  0  0  0
    3.1952   -0.0048    1.2145 H   0  0  0  0  0  0  0  0  0  0  0  0
    3.5168    1.3200    4.7907 H   0  0  0  0  0  0  0  0  0  0  0  0
    3.1455    1.8438    3.0987 H   0  0  0  0  0  0  0  0  0  0  0  0
    1.2119    1.8872    5.5458 H   0  0  0  0  0  0  0  0  0  0  0  0
    0.7125    2.2621    3.8391 H   0  0  0  0  0  0  0  0  0  0  0  0
    1.3715    5.5774    5.3462 H   0  0  0  0  0  0  0  0  0  0  0  0
    0.4538    4.1973    6.1059 H   0  0  0  0  0  0  0  0  0  0  0  0
    0.1484    4.6415    4.3689 H   0  0  0  0  0  0  0  0  0  0  0  0
    2.5358    4.0179    4.0362 H   0  0  0  0  0  0  0  0  0  0  0  0
    0.8443   -4.7139    4.0199 H   0  0  0  0  0  0  0  0  0  0  0  0
    0.9551   -2.2560    3.6265 H   0  0  0  0  0  0  0  0  0  0  0  0
    5.1393   -4.8548    4.5214 H   0  0  0  0  0  0  0  0  0  0  0  0
    5.2662   -2.3753    4.1505 H   0  0  0  0  0  0  0  0  0  0  0  0
    1.4732   -0.3199    4.5652 H   0  0  0  0  0  0  0  0  0  0  0  0
   -1.7959   -0.0042    1.2110 H   0  0  0  0  0  0  0  0  0  0  0  0
   -0.5523   -0.0133    3.3685 H   0  0  0  0  0  0  0  0  0  0  0  0
  1  2  2  0  0  0  0
  1 21  1  0  0  0  0
  2  3  1  0  0  0  0
  3 25  1  0  0  0  0
  3  4  2  0  0  0  0
  4  5  1  0  0  0  0
  5  6  1  0  0  0  0
  5 38  1  1  0  0  0
  6  7  1  0  0  0  0
  6 26  1  0  0  0  0
  7  8  1  0  0  0  0
  7 28  1  0  0  0  0
  8  9  1  0  0  0  0
  9 30  1  0  0  0  0
  9 31  1  0  0  0  0
 10  5  1  0  0  0  0
 10 11  1  0  0  0  0
 11 19  1  0  0  0  0
 12 11  2  0  0  0  0
 12 13  1  0  0  0  0
 13 14  2  0  0  0  0
 14 20  1  0  0  0  0
 14 15  1  0  0  0  0
 15 17  1  0  0  0  0
 15 16  1  0  0  0  0
 18 15  1  0  0  0  0
 19 37  1  0  0  0  0
 19 20  2  0  0  0  0
 20 36  1  0  0  0  0
 21 39  1  0  0  0  0
 21 22  2  0  0  0  0
 22  4  1  0  0  0  0
 22 40  1  0  0  0  0
 23  1  1  0  0  0  0
 24  2  1  0  0  0  0
 27  6  1  0  0  0  0
 29  7  1  0  0  0  0
 32  9  1  0  0  0  0
 33  8  1  0  0  0  0
 34 13  1  0  0  0  0
 35 12  1  0  0  0  0
M  END