B30
  Mrv0541 08111511043D          

 41 44  0  0  0  0            999 V2000
    0.0000    0.0000    0.0000 C   0  0  2  0  0  0  0  0  0  0  0  0
    1.5085    0.0000    0.0000 C   0  0  0  0  0  0  0  0  0  0  0  0
    2.1938    0.0000    1.2876 C   0  0  0  0  0  0  0  0  0  0  0  0
    1.6128   -0.0424    2.5570 C   0  0  0  0  0  0  0  0  0  0  0  0
    0.1908   -0.1394    2.8572 C   0  0  0  0  0  0  0  0  0  0  0  0
   -0.5038   -1.2131    2.1307 C   0  0  0  0  0  0  0  0  0  0  0  0
   -0.5751   -1.1617    0.7271 C   0  0  0  0  0  0  0  0  0  0  0  0
   -1.2086   -2.1939    0.0288 C   0  0  0  0  0  0  0  0  0  0  0  0
   -1.7645   -3.2713    0.7168 C   0  0  0  0  0  0  0  0  0  0  0  0
   -1.6933   -3.3229    2.1082 C   0  0  0  0  0  0  0  0  0  0  0  0
   -1.0662   -2.2972    2.8136 C   0  0  0  0  0  0  0  0  0  0  0  0
    2.6134   -0.0357    3.5806 C   0  0  0  0  0  0  0  0  0  0  0  0
    3.8869    0.0131    3.0481 C   0  0  0  0  0  0  0  0  0  0  0  0
    3.8709    0.0476    1.3984 S   0  0  0  0  0  0  0  0  0  0  0  0
   -0.4415    0.6767    3.7298 C   0  0  0  0  0  0  0  0  0  0  0  0
   -2.6248    1.8656    4.0435 C   0  0  1  0  0  0  0  0  0  0  0  0
   -0.5678    3.0809    4.4219 C   0  0  2  0  0  0  0  0  0  0  0  0
   -1.8841    0.5288    4.0722 C   0  0  1  0  0  0  0  0  0  0  0  0
   -1.9598    2.9084    4.8120 N   0  0  1  0  0  0  0  0  0  0  0  0
    0.2396    1.7826    4.4587 C   0  0  1  0  0  0  0  0  0  0  0  0
   -2.6931    4.1539    4.7993 C   0  0  0  0  0  0  0  0  0  0  0  0
    2.1280    0.0310   -1.0735 O   0  0  0  0  0  0  0  0  0  0  0  0
    4.8037    0.0240    3.6384 H   0  0  0  0  0  0  0  0  0  0  0  0
    2.3723   -0.0748    4.6452 H   0  0  0  0  0  0  0  0  0  0  0  0
   -0.3569    0.0099   -1.0660 H   0  0  0  0  0  0  0  0  0  0  0  0
   -0.3426    0.9553    0.4863 H   0  0  0  0  0  0  0  0  0  0  0  0
   -1.2648   -2.1557   -1.0698 H   0  0  0  0  0  0  0  0  0  0  0  0
   -2.2574   -4.0814    0.1596 H   0  0  0  0  0  0  0  0  0  0  0  0
   -2.1297   -4.1738    2.6515 H   0  0  0  0  0  0  0  0  0  0  0  0
   -1.0079   -2.3358    3.9116 H   0  0  0  0  0  0  0  0  0  0  0  0
   -2.4040   -0.1706    3.3652 H   0  0  0  0  0  0  0  0  0  0  0  0
   -2.7664    2.1727    2.9649 H   0  0  0  0  0  0  0  0  0  0  0  0
   -3.6479    1.7148    4.4905 H   0  0  0  0  0  0  0  0  0  0  0  0
   -1.9532    0.0835    5.1025 H   0  0  0  0  0  0  0  0  0  0  0  0
   -3.7275    3.9680    5.1903 H   0  0  0  0  0  0  0  0  0  0  0  0
   -2.1772    4.8837    5.4766 H   0  0  0  0  0  0  0  0  0  0  0  0
   -2.7755    4.6135    3.7757 H   0  0  0  0  0  0  0  0  0  0  0  0
    0.3874    1.4617    5.5261 H   0  0  0  0  0  0  0  0  0  0  0  0
   -0.1011    3.8091    5.1439 H   0  0  0  0  0  0  0  0  0  0  0  0
    1.2516    1.9984    4.0245 H   0  0  0  0  0  0  0  0  0  0  0  0
   -0.4806    3.5253    3.3862 H   0  0  0  0  0  0  0  0  0  0  0  0
  1  2  1  0  0  0  0
  1 26  1  0  0  0  0
  1  7  1  0  0  0  0
  2  3  1  0  0  0  0
  3 14  1  0  0  0  0
  3  4  2  0  0  0  0
  4  5  1  0  0  0  0
  4 12  1  0  0  0  0
  5 15  2  0  0  0  0
  6  5  1  0  0  0  0
  6 11  1  0  0  0  0
  7  6  2  0  0  0  0
  8  7  1  0  0  0  0
  8  9  2  0  0  0  0
  9 10  1  0  0  0  0
 10 29  1  0  0  0  0
 10 11  2  0  0  0  0
 11 30  1  0  0  0  0
 12 24  1  0  0  0  0
 13 12  2  0  0  0  0
 13 23  1  0  0  0  0
 14 13  1  0  0  0  0
 15 18  1  0  0  0  0
 15 20  1  0  0  0  0
 16 18  1  0  0  0  0
 16 33  1  0  0  0  0
 16 19  1  0  0  0  0
 17 20  1  0  0  0  0
 17 19  1  0  0  0  0
 17 39  1  0  0  0  0
 18 34  1  0  0  0  0
 20 38  1  0  0  0  0
 21 19  1  0  0  0  0
 21 35  1  0  0  0  0
 21 36  1  0  0  0  0
 22  2  2  0  0  0  0
 25  1  1  0  0  0  0
 27  8  1  0  0  0  0
 28  9  1  0  0  0  0
 31 18  1  0  0  0  0
 32 16  1  0  0  0  0
 37 21  1  0  0  0  0
 40 20  1  0  0  0  0
 41 17  1  0  0  0  0
M  END