B31
  Mrv0541 08111511043D          

 26 27  0  0  0  0            999 V2000
    0.0000    0.0000    0.0000 S   0  0  0  0  0  0  0  0  0  0  0  0
    1.7653    0.0000    0.0000 C   0  0  2  0  0  0  0  0  0  0  0  0
    2.2299    0.0000    1.4677 C   0  0  1  0  0  0  0  0  0  0  0  0
    2.6384    1.3047    1.9583 N   0  0  0  0  0  0  0  0  0  0  0  0
    1.7959    2.3908    1.9109 C   0  0  0  0  0  0  0  0  0  0  0  0
    2.1814    3.6246    2.3609 C   0  0  0  0  0  0  0  0  0  0  0  0
    3.9613    1.4693    2.5371 C   0  0  0  0  0  0  0  0  0  0  0  0
    4.7005    0.4650    2.5703 O   0  0  0  0  0  0  0  0  0  0  0  0
    4.3679    2.7171    3.0186 N   0  0  0  0  0  0  0  0  0  0  0  0
    3.5255    3.7629    2.9224 C   0  0  0  0  0  0  0  0  0  0  0  0
    3.9387    5.0109    3.3311 N   0  0  0  0  0  0  0  0  0  0  0  0
   -0.0974   -0.5774    1.7017 C   0  0  1  0  0  0  0  0  0  0  0  0
    1.1957   -0.5675    2.2960 O   0  0  0  0  0  0  0  0  0  0  0  0
   -1.0731    0.2454    2.5401 C   0  0  2  0  0  0  0  0  0  0  0  0
   -0.4389    1.2783    3.2588 O   0  0  0  0  0  0  0  0  0  0  0  0
    1.4994    4.4797    2.3088 H   0  0  0  0  0  0  0  0  0  0  0  0
    0.7780    2.2088    1.5014 H   0  0  0  0  0  0  0  0  0  0  0  0
    3.2552    5.7188    3.4271 H   0  0  0  0  0  0  0  0  0  0  0  0
    4.8043    5.1187    3.8023 H   0  0  0  0  0  0  0  0  0  0  0  0
    3.1058   -0.7108    1.6187 H   0  0  0  0  0  0  0  0  0  0  0  0
    2.1369    0.8857   -0.5677 H   0  0  0  0  0  0  0  0  0  0  0  0
    2.1549   -0.9191   -0.5006 H   0  0  0  0  0  0  0  0  0  0  0  0
    0.2692    0.8761    3.7818 H   0  0  0  0  0  0  0  0  0  0  0  0
   -1.6111   -0.4388    3.2518 H   0  0  0  0  0  0  0  0  0  0  0  0
   -1.8186    0.7652    1.8790 H   0  0  0  0  0  0  0  0  0  0  0  0
   -0.4188   -1.6541    1.6924 H   0  0  0  0  0  0  0  0  0  0  0  0
  1  2  1  0  0  0  0
  1 12  1  0  0  0  0
  2  3  1  0  0  0  0
  3 20  1  1  0  0  0
  3  4  1  0  0  0  0
  3 13  1  0  0  0  0
  4  7  1  0  0  0  0
  5  4  1  0  0  0  0
  5  6  2  0  0  0  0
  6 10  1  0  0  0  0
  7  8  2  0  0  0  0
  7  9  1  0  0  0  0
 10  9  2  0  0  0  0
 10 11  1  0  0  0  0
 11 18  1  0  0  0  0
 11 19  1  0  0  0  0
 12 26  1  6  0  0  0
 12 13  1  0  0  0  0
 12 14  1  0  0  0  0
 14 24  1  0  0  0  0
 14 15  1  0  0  0  0
 15 23  1  0  0  0  0
 16  6  1  0  0  0  0
 17  5  1  0  0  0  0
 21  2  1  0  0  0  0
 22  2  1  0  0  0  0
 25 14  1  0  0  0  0
M  END