B32
  Mrv0541 08111511043D          

 39 39  0  0  0  0            999 V2000
    0.0000    0.0000    0.0000 C   0  0  0  0  0  0  0  0  0  0  0  0
    1.3921    0.0000    0.0000 C   0  0  0  0  0  0  0  0  0  0  0  0
    2.1054    0.0000    1.1999 C   0  0  0  0  0  0  0  0  0  0  0  0
    1.4039    0.0087    2.4340 C   0  0  0  0  0  0  0  0  0  0  0  0
    2.1307    0.0628    3.6475 N   0  0  0  0  0  0  0  0  0  0  0  0
    2.1494   -0.9547    4.5873 C   0  0  0  0  0  0  0  0  0  0  0  0
    3.1315   -0.8002    5.7620 C   0  0  1  0  0  0  0  0  0  0  0  0
    4.4936   -0.5213    5.3405 N   0  0  1  0  0  0  0  0  0  0  0  0
    5.3178    0.0106    6.4194 C   0  0  2  0  0  0  0  0  0  0  0  0
    4.9748    1.4366    6.8199 C   0  0  0  0  0  0  0  0  0  0  0  0
    5.1079   -1.6643    4.6700 C   0  0  2  0  0  0  0  0  0  0  0  0
    6.2379   -1.2853    3.7259 C   0  0  0  0  0  0  0  0  0  0  0  0
    1.3727   -1.9270    4.5686 O   0  0  0  0  0  0  0  0  0  0  0  0
    3.5879   -0.0054    1.1656 C   0  0  0  0  0  0  0  0  0  0  0  0
   -0.6917    0.0109    1.2060 C   0  0  0  0  0  0  0  0  0  0  0  0
   -0.0116    0.0235    2.4287 C   0  0  0  0  0  0  0  0  0  0  0  0
   -0.7911    0.0499    3.6883 C   0  0  0  0  0  0  0  0  0  0  0  0
   -0.5504   -0.0083   -0.9520 H   0  0  0  0  0  0  0  0  0  0  0  0
    1.9390   -0.0064   -0.9551 H   0  0  0  0  0  0  0  0  0  0  0  0
    2.7616    0.0529    6.3981 H   0  0  0  0  0  0  0  0  0  0  0  0
    3.0526   -1.7492    6.3695 H   0  0  0  0  0  0  0  0  0  0  0  0
    4.9614    2.1137    5.9327 H   0  0  0  0  0  0  0  0  0  0  0  0
    3.9809    1.4948    7.3242 H   0  0  0  0  0  0  0  0  0  0  0  0
    5.7520    1.8008    7.5348 H   0  0  0  0  0  0  0  0  0  0  0  0
    6.3887   -0.0036    6.0660 H   0  0  0  0  0  0  0  0  0  0  0  0
    5.2601   -0.6456    7.3381 H   0  0  0  0  0  0  0  0  0  0  0  0
    6.5724   -2.2043    3.1864 H   0  0  0  0  0  0  0  0  0  0  0  0
    5.8969   -0.5335    2.9733 H   0  0  0  0  0  0  0  0  0  0  0  0
    7.1113   -0.8622    4.2766 H   0  0  0  0  0  0  0  0  0  0  0  0
    4.3069   -2.1814    4.0647 H   0  0  0  0  0  0  0  0  0  0  0  0
    5.4977   -2.4155    5.4185 H   0  0  0  0  0  0  0  0  0  0  0  0
    2.9227    0.6703    3.6279 H   0  0  0  0  0  0  0  0  0  0  0  0
    3.9964    0.9466    1.5902 H   0  0  0  0  0  0  0  0  0  0  0  0
    3.9956   -0.8589    1.7652 H   0  0  0  0  0  0  0  0  0  0  0  0
    3.9650   -0.1059    0.1180 H   0  0  0  0  0  0  0  0  0  0  0  0
   -1.7926    0.0126    1.2043 H   0  0  0  0  0  0  0  0  0  0  0  0
   -1.8840    0.1642    3.4840 H   0  0  0  0  0  0  0  0  0  0  0  0
   -0.6342   -0.9040    4.2564 H   0  0  0  0  0  0  0  0  0  0  0  0
   -0.4645    0.9015    4.3357 H   0  0  0  0  0  0  0  0  0  0  0  0
  1  2  2  0  0  0  0
  1 15  1  0  0  0  0
  2  3  1  0  0  0  0
  3  4  2  0  0  0  0
  4  5  1  0  0  0  0
  5  6  1  0  0  0  0
  6  7  1  0  0  0  0
  7 21  1  0  0  0  0
  7 20  1  0  0  0  0
  8  7  1  0  0  0  0
  8  9  1  0  0  0  0
  9 10  1  0  0  0  0
  9 26  1  0  0  0  0
 10 23  1  0  0  0  0
 10 24  1  0  0  0  0
 11  8  1  0  0  0  0
 11 31  1  0  0  0  0
 12 11  1  0  0  0  0
 12 29  1  0  0  0  0
 13  6  2  0  0  0  0
 14  3  1  0  0  0  0
 14 33  1  0  0  0  0
 14 34  1  0  0  0  0
 15 16  2  0  0  0  0
 16  4  1  0  0  0  0
 16 17  1  0  0  0  0
 17 38  1  0  0  0  0
 17 39  1  0  0  0  0
 18  1  1  0  0  0  0
 19  2  1  0  0  0  0
 22 10  1  0  0  0  0
 25  9  1  0  0  0  0
 27 12  1  0  0  0  0
 28 12  1  0  0  0  0
 30 11  1  0  0  0  0
 32  5  1  0  0  0  0
 35 14  1  0  0  0  0
 36 15  1  0  0  0  0
 37 17  1  0  0  0  0
M  END