B33
  Mrv0541 08111511043D          

 42 42  0  0  0  0            999 V2000
    0.0000    0.0000    0.0000 C   0  0  0  0  0  0  0  0  0  0  0  0
    1.3978    0.0000    0.0000 C   0  0  0  0  0  0  0  0  0  0  0  0
    2.0671    0.0000    1.2419 C   0  0  0  0  0  0  0  0  0  0  0  0
    3.4452   -0.0302    1.1913 O   0  0  0  0  0  0  0  0  0  0  0  0
    4.1412   -0.1021    2.4308 C   0  0  0  0  0  0  0  0  0  0  0  0
    2.0728   -0.0390   -1.3277 C   0  0  0  0  0  0  0  0  0  0  0  0
    3.2010    0.7342   -1.5124 N   0  0  0  0  0  0  0  0  0  0  0  0
    3.9702    0.6224   -2.7211 C   0  0  2  0  0  0  0  0  0  0  0  0
    4.9308    1.8067   -2.9555 C   0  0  1  0  0  0  0  0  0  0  0  0
    5.8853    2.0164   -1.8790 N   0  0  2  0  0  0  0  0  0  0  0  0
    6.3654    3.3903   -1.8024 C   0  0  2  0  0  0  0  0  0  0  0  0
    5.3495    4.3695   -1.2350 C   0  0  0  0  0  0  0  0  0  0  0  0
    6.9691    1.0416   -1.8774 C   0  0  2  0  0  0  0  0  0  0  0  0
    7.5627    0.7930   -0.4988 C   0  0  0  0  0  0  0  0  0  0  0  0
    1.5774   -0.6904   -2.2742 O   0  0  0  0  0  0  0  0  0  0  0  0
   -0.7228    0.0297    1.1876 C   0  0  0  0  0  0  0  0  0  0  0  0
   -0.0586    0.0338    2.4437 C   0  0  0  0  0  0  0  0  0  0  0  0
    1.3572    0.0229    2.4441 C   0  0  0  0  0  0  0  0  0  0  0  0
   -0.7579   -0.0175    3.6362 N   0  0  0  0  0  0  0  0  0  0  0  0
   -2.4251    0.0529    1.1141 Cl  0  0  0  0  0  0  0  0  0  0  0  0
   -0.5259   -0.0318   -0.9717 H   0  0  0  0  0  0  0  0  0  0  0  0
    5.2159   -0.1406    2.1150 H   0  0  0  0  0  0  0  0  0  0  0  0
    3.9446    0.8090    3.0462 H   0  0  0  0  0  0  0  0  0  0  0  0
    3.8589   -1.0268    2.9896 H   0  0  0  0  0  0  0  0  0  0  0  0
    3.2577    0.5825   -3.5957 H   0  0  0  0  0  0  0  0  0  0  0  0
    4.5534   -0.3442   -2.7201 H   0  0  0  0  0  0  0  0  0  0  0  0
    5.4464    1.6100   -3.9414 H   0  0  0  0  0  0  0  0  0  0  0  0
    4.3153    2.7427   -3.0758 H   0  0  0  0  0  0  0  0  0  0  0  0
    4.9726    4.0269   -0.2418 H   0  0  0  0  0  0  0  0  0  0  0  0
    5.8448    5.3623   -1.1072 H   0  0  0  0  0  0  0  0  0  0  0  0
    4.4756    4.4971   -1.9171 H   0  0  0  0  0  0  0  0  0  0  0  0
    6.6975    3.7641   -2.8164 H   0  0  0  0  0  0  0  0  0  0  0  0
    7.2719    3.4038   -1.1315 H   0  0  0  0  0  0  0  0  0  0  0  0
    6.7741    0.4736    0.2246 H   0  0  0  0  0  0  0  0  0  0  0  0
    8.3247   -0.0193   -0.5797 H   0  0  0  0  0  0  0  0  0  0  0  0
    8.0608    1.7065   -0.0955 H   0  0  0  0  0  0  0  0  0  0  0  0
    7.8012    1.3545   -2.5758 H   0  0  0  0  0  0  0  0  0  0  0  0
    6.5666    0.0609   -2.2620 H   0  0  0  0  0  0  0  0  0  0  0  0
    3.6633    1.1064   -0.7139 H   0  0  0  0  0  0  0  0  0  0  0  0
    1.8925    0.0187    3.4040 H   0  0  0  0  0  0  0  0  0  0  0  0
   -0.2675    0.2618    4.4521 H   0  0  0  0  0  0  0  0  0  0  0  0
   -1.7223    0.2192    3.6062 H   0  0  0  0  0  0  0  0  0  0  0  0
  1 16  1  0  0  0  0
  2  1  2  0  0  0  0
  2  3  1  0  0  0  0
  3 18  2  0  0  0  0
  4  3  1  0  0  0  0
  4  5  1  0  0  0  0
  5 24  1  0  0  0  0
  5 23  1  0  0  0  0
  6  2  1  0  0  0  0
  7  6  1  0  0  0  0
  7 39  1  0  0  0  0
  8  7  1  0  0  0  0
  8 26  1  0  0  0  0
  9  8  1  0  0  0  0
  9 10  1  0  0  0  0
 10 13  1  0  0  0  0
 10 11  1  0  0  0  0
 11 12  1  0  0  0  0
 11 33  1  0  0  0  0
 12 30  1  0  0  0  0
 12 29  1  0  0  0  0
 13 14  1  0  0  0  0
 14 36  1  0  0  0  0
 14 34  1  0  0  0  0
 15  6  2  0  0  0  0
 16 17  2  0  0  0  0
 17 18  1  0  0  0  0
 17 19  1  0  0  0  0
 18 40  1  0  0  0  0
 19 41  1  0  0  0  0
 20 16  1  0  0  0  0
 21  1  1  0  0  0  0
 22  5  1  0  0  0  0
 25  8  1  0  0  0  0
 27  9  1  0  0  0  0
 28  9  1  0  0  0  0
 31 12  1  0  0  0  0
 32 11  1  0  0  0  0
 35 14  1  0  0  0  0
 37 13  1  0  0  0  0
 38 13  1  0  0  0  0
 42 19  1  0  0  0  0
M  END