B39
  Mrv0541 08111511043D          

 34 37  0  0  0  0            999 V2000
    0.0000    0.0000    0.0000 O   0  0  0  0  0  0  0  0  0  0  0  0
    1.2488    0.0000    0.0000 C   0  0  0  0  0  0  0  0  0  0  0  0
    1.8787    0.0000    1.2354 N   0  0  0  0  0  0  0  0  0  0  0  0
    3.2514   -0.0143    1.4966 C   0  0  0  0  0  0  0  0  0  0  0  0
    4.2063    0.7058    0.6919 C   0  0  0  0  0  0  0  0  0  0  0  0
    5.5417    0.6808    0.9579 N   0  0  0  0  0  0  0  0  0  0  0  0
    5.9645   -0.0026    2.0294 C   0  0  0  0  0  0  0  0  0  0  0  0
    3.7428   -0.7304    2.6215 C   0  0  0  0  0  0  0  0  0  0  0  0
    5.1125   -0.7157    2.8857 C   0  0  0  0  0  0  0  0  0  0  0  0
    2.8260   -1.4766    3.5150 C   0  0  0  0  0  0  0  0  0  0  0  0
    2.0188   -0.0571   -1.2631 C   0  0  0  0  0  0  0  0  0  0  0  0
    3.2235    0.6730   -1.4776 C   0  0  0  0  0  0  0  0  0  0  0  0
    3.6989    1.5001   -0.4010 N   0  0  2  0  0  0  0  0  0  0  0  0
    4.5205    2.6251   -0.7895 C   0  0  2  0  0  0  0  0  0  0  0  0
    4.4893    3.8958    0.0382 C   0  0  2  0  0  0  0  0  0  0  0  0
    3.8607    3.8831   -1.3224 C   0  0  2  0  0  0  0  0  0  0  0  0
    3.8751    0.6387   -2.6807 N   0  0  0  0  0  0  0  0  0  0  0  0
    3.3418   -0.0995   -3.6634 C   0  0  0  0  0  0  0  0  0  0  0  0
    1.4884   -0.8133   -2.3180 C   0  0  0  0  0  0  0  0  0  0  0  0
    2.1554   -0.8467   -3.5377 C   0  0  0  0  0  0  0  0  0  0  0  0
    7.0556    0.0243    2.2048 H   0  0  0  0  0  0  0  0  0  0  0  0
    5.5216   -1.2573    3.7495 H   0  0  0  0  0  0  0  0  0  0  0  0
    3.3974   -2.0367    4.2960 H   0  0  0  0  0  0  0  0  0  0  0  0
    2.1265   -0.7740    4.0354 H   0  0  0  0  0  0  0  0  0  0  0  0
    2.2179   -2.2138    2.9326 H   0  0  0  0  0  0  0  0  0  0  0  0
    1.2785   -0.0132    2.0348 H   0  0  0  0  0  0  0  0  0  0  0  0
    5.4465    4.4242    0.1935 H   0  0  0  0  0  0  0  0  0  0  0  0
    3.8336    3.9568    0.9248 H   0  0  0  0  0  0  0  0  0  0  0  0
    2.7602    3.9354   -1.3988 H   0  0  0  0  0  0  0  0  0  0  0  0
    4.3595    4.4023   -2.1598 H   0  0  0  0  0  0  0  0  0  0  0  0
    5.5002    2.3391   -1.2390 H   0  0  0  0  0  0  0  0  0  0  0  0
    3.9079   -0.0923   -4.6141 H   0  0  0  0  0  0  0  0  0  0  0  0
    1.7700   -1.4298   -4.3836 H   0  0  0  0  0  0  0  0  0  0  0  0
    0.5418   -1.3580   -2.1672 H   0  0  0  0  0  0  0  0  0  0  0  0
  2  1  2  0  0  0  0
  2  3  1  0  0  0  0
  3  4  1  0  0  0  0
  3 26  1  0  0  0  0
  4  8  1  0  0  0  0
  5  4  2  0  0  0  0
  5  6  1  0  0  0  0
  6  7  2  0  0  0  0
  7 21  1  0  0  0  0
  7  9  1  0  0  0  0
  8  9  2  0  0  0  0
  8 10  1  0  0  0  0
  9 22  1  0  0  0  0
 10 24  1  0  0  0  0
 10 23  1  0  0  0  0
 11  2  1  0  0  0  0
 12 11  1  0  0  0  0
 12 13  1  0  0  0  0
 13  5  1  0  0  0  0
 14 13  1  0  0  0  0
 14 15  1  0  0  0  0
 15 27  1  0  0  0  0
 15 28  1  0  0  0  0
 16 14  1  0  0  0  0
 16 15  1  0  0  0  0
 17 12  2  0  0  0  0
 18 17  1  0  0  0  0
 18 20  2  0  0  0  0
 19 11  2  0  0  0  0
 19 34  1  0  0  0  0
 20 19  1  0  0  0  0
 25 10  1  0  0  0  0
 29 16  1  0  0  0  0
 30 16  1  0  0  0  0
 31 14  1  0  0  0  0
 32 18  1  0  0  0  0
 33 20  1  0  0  0  0
M  END