B40
  Mrv0541 08111511043D          

 41 44  0  0  0  0            999 V2000
    0.0000    0.0000    0.0000 O   0  0  0  0  0  0  0  0  0  0  0  0
    1.2382    0.0000    0.0000 C   0  0  0  0  0  0  0  0  0  0  0  0
    2.0355    0.0000    1.2965 C   0  0  1  0  0  0  0  0  0  0  0  0
    3.3342    0.7800    1.1694 C   0  0  2  0  0  0  0  0  0  0  0  0
    4.2380    0.2349    0.0756 C   0  0  2  0  0  0  0  0  0  0  0  0
    1.1660    0.5567    2.4378 C   0  0  2  0  0  0  0  0  0  0  0  0
    1.6639    0.2994    3.7552 N   0  0  0  0  0  0  0  0  0  0  0  0
    2.3546    1.1972    4.6016 C   0  0  0  0  0  0  0  0  0  0  0  0
    2.7138    0.5803    5.7574 N   0  0  0  0  0  0  0  0  0  0  0  0
    2.5988    2.6191    4.2521 C   0  0  0  0  0  0  0  0  0  0  0  0
    1.6146   -0.9270    4.4224 C   0  0  0  0  0  0  0  0  0  0  0  0
    2.2616   -0.7311    5.6551 C   0  0  0  0  0  0  0  0  0  0  0  0
    2.0517   -0.0486   -1.1942 C   0  0  0  0  0  0  0  0  0  0  0  0
    3.4559    0.0546   -1.1693 C   0  0  0  0  0  0  0  0  0  0  0  0
    3.9666   -0.0523   -2.4610 N   0  0  0  0  0  0  0  0  0  0  0  0
    5.3364    0.0696   -2.8360 C   0  0  0  0  0  0  0  0  0  0  0  0
    1.6589   -0.2090   -2.5745 C   0  0  0  0  0  0  0  0  0  0  0  0
    2.8807   -0.2034   -3.3473 C   0  0  0  0  0  0  0  0  0  0  0  0
    2.8506   -0.3446   -4.7422 C   0  0  0  0  0  0  0  0  0  0  0  0
    1.6109   -0.4881   -5.3488 C   0  0  0  0  0  0  0  0  0  0  0  0
    0.4318   -0.3559   -3.2220 C   0  0  0  0  0  0  0  0  0  0  0  0
    0.4195   -0.4937   -4.6028 C   0  0  0  0  0  0  0  0  0  0  0  0
    4.6646   -0.7579    0.3880 H   0  0  0  0  0  0  0  0  0  0  0  0
    5.0990    0.9373   -0.0846 H   0  0  0  0  0  0  0  0  0  0  0  0
    3.8883    0.7414    2.1446 H   0  0  0  0  0  0  0  0  0  0  0  0
    3.1001    1.8565    0.9548 H   0  0  0  0  0  0  0  0  0  0  0  0
    3.2362    3.1037    5.0325 H   0  0  0  0  0  0  0  0  0  0  0  0
    3.1192    2.6923    3.2641 H   0  0  0  0  0  0  0  0  0  0  0  0
    1.6273    3.1706    4.1898 H   0  0  0  0  0  0  0  0  0  0  0  0
    2.4181   -1.4497    6.4583 H   0  0  0  0  0  0  0  0  0  0  0  0
    1.1318   -1.8018    3.9932 H   0  0  0  0  0  0  0  0  0  0  0  0
    0.1372    0.0961    2.3499 H   0  0  0  0  0  0  0  0  0  0  0  0
    1.0648    1.6719    2.3068 H   0  0  0  0  0  0  0  0  0  0  0  0
    2.2805   -1.0811    1.5092 H   0  0  0  0  0  0  0  0  0  0  0  0
    5.5237   -0.5245   -3.7702 H   0  0  0  0  0  0  0  0  0  0  0  0
    5.5981    1.1458   -3.0311 H   0  0  0  0  0  0  0  0  0  0  0  0
    5.9901   -0.3198   -2.0103 H   0  0  0  0  0  0  0  0  0  0  0  0
    1.5570   -0.5999   -6.4424 H   0  0  0  0  0  0  0  0  0  0  0  0
    3.7751   -0.3408   -5.3344 H   0  0  0  0  0  0  0  0  0  0  0  0
   -0.5392   -0.6095   -5.1300 H   0  0  0  0  0  0  0  0  0  0  0  0
   -0.4965   -0.3584   -2.6299 H   0  0  0  0  0  0  0  0  0  0  0  0
  1  2  2  0  0  0  0
  2  3  1  0  0  0  0
  3 34  1  1  0  0  0
  3  6  1  0  0  0  0
  4  3  1  0  0  0  0
  4 25  1  0  0  0  0
  5  4  1  0  0  0  0
  5 23  1  0  0  0  0
  6  7  1  0  0  0  0
  7 11  1  0  0  0  0
  7  8  1  0  0  0  0
  8  9  2  0  0  0  0
 10  8  1  0  0  0  0
 10 27  1  0  0  0  0
 11 12  2  0  0  0  0
 12  9  1  0  0  0  0
 12 30  1  0  0  0  0
 13  2  1  0  0  0  0
 13 14  2  0  0  0  0
 14  5  1  0  0  0  0
 15 14  1  0  0  0  0
 16 15  1  0  0  0  0
 16 37  1  0  0  0  0
 17 13  1  0  0  0  0
 18 15  1  0  0  0  0
 18 17  1  0  0  0  0
 19 18  2  0  0  0  0
 20 19  1  0  0  0  0
 20 22  2  0  0  0  0
 21 17  2  0  0  0  0
 21 41  1  0  0  0  0
 22 21  1  0  0  0  0
 24  5  1  0  0  0  0
 26  4  1  0  0  0  0
 28 10  1  0  0  0  0
 29 10  1  0  0  0  0
 31 11  1  0  0  0  0
 32  6  1  0  0  0  0
 33  6  1  0  0  0  0
 35 16  1  0  0  0  0
 36 16  1  0  0  0  0
 38 20  1  0  0  0  0
 39 19  1  0  0  0  0
 40 22  1  0  0  0  0
M  END