B42
  Mrv0541 08111511043D          

 46 48  0  0  0  0            999 V2000
    0.0000    0.0000    0.0000 C   0  0  0  0  0  0  0  0  0  0  0  0
    1.4191    0.0000    0.0000 C   0  0  0  0  0  0  0  0  0  0  0  0
    2.1106    0.0000    1.2409 C   0  0  0  0  0  0  0  0  0  0  0  0
    1.4153   -0.0216    2.4281 C   0  0  0  0  0  0  0  0  0  0  0  0
    1.9798   -0.0285    3.6859 O   0  0  0  0  0  0  0  0  0  0  0  0
    3.4008    0.0458    3.7313 C   0  0  0  0  0  0  0  0  0  0  0  0
    2.0943    0.0057   -1.2740 C   0  0  0  0  0  0  0  0  0  0  0  0
    3.6009   -0.0645   -1.3141 C   0  0  2  0  0  0  0  0  0  0  0  0
    4.2488    1.2462   -1.0273 C   0  0  0  0  0  0  0  0  0  0  0  0
    5.1984    1.3561   -0.0128 C   0  0  0  0  0  0  0  0  0  0  0  0
    5.8405    2.5717    0.2357 C   0  0  0  0  0  0  0  0  0  0  0  0
    5.5319    3.6921   -0.5338 C   0  0  0  0  0  0  0  0  0  0  0  0
    6.0973    4.9416   -0.3777 O   0  0  0  0  0  0  0  0  0  0  0  0
    7.0779    5.0557    0.6467 C   0  0  0  0  0  0  0  0  0  0  0  0
    3.9359    2.3665   -1.8116 C   0  0  0  0  0  0  0  0  0  0  0  0
    4.5658    3.5857   -1.5721 C   0  0  0  0  0  0  0  0  0  0  0  0
    4.3332    4.7464   -2.2819 O   0  0  0  0  0  0  0  0  0  0  0  0
    3.3497    4.6609   -3.3074 C   0  0  0  0  0  0  0  0  0  0  0  0
   -0.7104   -0.0264    1.2312 C   0  0  0  0  0  0  0  0  0  0  0  0
   -0.0264   -0.0414    2.4246 C   0  0  0  0  0  0  0  0  0  0  0  0
   -0.6009   -0.0714    3.6755 O   0  0  0  0  0  0  0  0  0  0  0  0
   -2.0249   -0.0786    3.7066 C   0  0  0  0  0  0  0  0  0  0  0  0
   -0.6787    0.0296   -1.2457 C   0  0  0  0  0  0  0  0  0  0  0  0
    0.0715    0.0562   -2.4084 C   0  0  0  0  0  0  0  0  0  0  0  0
    1.4344    0.0405   -2.4349 N   0  0  0  0  0  0  0  0  0  0  0  0
    3.2107    0.0418    1.2333 H   0  0  0  0  0  0  0  0  0  0  0  0
    3.6225    0.0524    4.8287 H   0  0  0  0  0  0  0  0  0  0  0  0
    3.8574   -0.8487    3.2420 H   0  0  0  0  0  0  0  0  0  0  0  0
    3.7644    0.9852    3.2483 H   0  0  0  0  0  0  0  0  0  0  0  0
    5.4576    0.4796    0.5996 H   0  0  0  0  0  0  0  0  0  0  0  0
    6.5880    2.6332    1.0389 H   0  0  0  0  0  0  0  0  0  0  0  0
    7.9433    4.3788    0.4449 H   0  0  0  0  0  0  0  0  0  0  0  0
    7.3928    6.1283    0.5836 H   0  0  0  0  0  0  0  0  0  0  0  0
    6.6332    4.8343    1.6472 H   0  0  0  0  0  0  0  0  0  0  0  0
    3.1903    2.2660   -2.6147 H   0  0  0  0  0  0  0  0  0  0  0  0
    3.3224    5.6997   -3.7241 H   0  0  0  0  0  0  0  0  0  0  0  0
    3.6598    3.9294   -4.0926 H   0  0  0  0  0  0  0  0  0  0  0  0
    2.3559    4.3804   -2.8815 H   0  0  0  0  0  0  0  0  0  0  0  0
    3.9461   -0.4112   -2.3294 H   0  0  0  0  0  0  0  0  0  0  0  0
    3.9357   -0.8417   -0.5749 H   0  0  0  0  0  0  0  0  0  0  0  0
   -1.8092   -0.0324    1.2001 H   0  0  0  0  0  0  0  0  0  0  0  0
   -2.4345    0.8468    3.2338 H   0  0  0  0  0  0  0  0  0  0  0  0
   -2.4257   -0.9891    3.1987 H   0  0  0  0  0  0  0  0  0  0  0  0
   -2.2574   -0.1007    4.8016 H   0  0  0  0  0  0  0  0  0  0  0  0
   -1.7759    0.0319   -1.2735 H   0  0  0  0  0  0  0  0  0  0  0  0
   -0.4063    0.0860   -3.4038 H   0  0  0  0  0  0  0  0  0  0  0  0
  1  2  1  0  0  0  0
  1 19  1  0  0  0  0
  2  3  1  0  0  0  0
  3  4  2  0  0  0  0
  4  5  1  0  0  0  0
  5  6  1  0  0  0  0
  6 27  1  0  0  0  0
  7  2  2  0  0  0  0
  8  7  1  0  0  0  0
  8  9  1  0  0  0  0
  8 40  1  0  0  0  0
  9 10  1  0  0  0  0
 10 11  2  0  0  0  0
 10 30  1  0  0  0  0
 11 31  1  0  0  0  0
 12 11  1  0  0  0  0
 12 13  1  0  0  0  0
 13 14  1  0  0  0  0
 14 34  1  0  0  0  0
 15  9  2  0  0  0  0
 15 16  1  0  0  0  0
 16 12  2  0  0  0  0
 17 16  1  0  0  0  0
 18 17  1  0  0  0  0
 18 38  1  0  0  0  0
 19 20  2  0  0  0  0
 20  4  1  0  0  0  0
 20 21  1  0  0  0  0
 21 22  1  0  0  0  0
 22 44  1  0  0  0  0
 23  1  2  0  0  0  0
 24 23  1  0  0  0  0
 25  7  1  0  0  0  0
 25 24  2  0  0  0  0
 26  3  1  0  0  0  0
 28  6  1  0  0  0  0
 29  6  1  0  0  0  0
 32 14  1  0  0  0  0
 33 14  1  0  0  0  0
 35 15  1  0  0  0  0
 36 18  1  0  0  0  0
 37 18  1  0  0  0  0
 39  8  1  0  0  0  0
 41 19  1  0  0  0  0
 42 22  1  0  0  0  0
 43 22  1  0  0  0  0
 45 23  1  0  0  0  0
 46 24  1  0  0  0  0
M  END