B44
  Mrv0541 08111511043D          

 49 50  0  0  0  0            999 V2000
    0.0000    0.0000    0.0000 C   0  0  0  0  0  0  0  0  0  0  0  0
    1.3947    0.0000    0.0000 C   0  0  0  0  0  0  0  0  0  0  0  0
    2.1012    0.0000    1.2046 C   0  0  0  0  0  0  0  0  0  0  0  0
    1.4087   -0.0203    2.4228 C   0  0  0  0  0  0  0  0  0  0  0  0
    0.0203   -0.0240    2.4400 C   0  0  0  0  0  0  0  0  0  0  0  0
   -0.6854   -0.0104    1.2205 C   0  0  0  0  0  0  0  0  0  0  0  0
    3.5979    0.0011    1.1885 C   0  0  0  0  0  0  0  0  0  0  0  0
    4.2113   -0.8538    0.4262 N   0  0  0  0  0  0  0  0  0  0  0  0
    4.1875    0.9199    2.0865 N   0  0  2  0  0  0  0  0  0  0  0  0
   -2.0585   -0.0029    1.3516 O   0  0  0  0  0  0  0  0  0  0  0  0
   -4.2668   -0.1038    0.5432 C   0  0  1  0  0  0  0  0  0  0  0  0
   -2.8055   -0.0681    0.1299 C   0  0  2  0  0  0  0  0  0  0  0  0
   -6.6130   -0.2081   -0.2831 C   0  0  1  0  0  0  0  0  0  0  0  0
   -5.1535   -0.1792   -0.6803 C   0  0  2  0  0  0  0  0  0  0  0  0
   -8.8407   -0.3055   -1.0369 O   0  0  0  0  0  0  0  0  0  0  0  0
   -7.4912   -0.2898   -1.5199 C   0  0  2  0  0  0  0  0  0  0  0  0
   -9.8266   -0.3276   -2.0013 C   0  0  0  0  0  0  0  0  0  0  0  0
  -11.1412   -0.2632   -1.4981 C   0  0  0  0  0  0  0  0  0  0  0  0
  -12.2107   -0.2911   -2.3831 C   0  0  0  0  0  0  0  0  0  0  0  0
  -11.9850   -0.3856   -3.7630 C   0  0  0  0  0  0  0  0  0  0  0  0
  -10.6790   -0.4356   -4.2549 C   0  0  0  0  0  0  0  0  0  0  0  0
   -9.5938   -0.4123   -3.3791 C   0  0  0  0  0  0  0  0  0  0  0  0
  -13.1394   -0.4126   -4.7154 C   0  0  0  0  0  0  0  0  0  0  0  0
  -14.1798   -1.2936   -4.3416 N   0  0  1  0  0  0  0  0  0  0  0  0
  -13.1215    0.3912   -5.7359 N   0  0  0  0  0  0  0  0  0  0  0  0
    3.6010    1.6667    2.3771 H   0  0  0  0  0  0  0  0  0  0  0  0
    5.1260    1.1864    1.9002 H   0  0  0  0  0  0  0  0  0  0  0  0
    5.2087   -0.8240    0.4370 H   0  0  0  0  0  0  0  0  0  0  0  0
    1.9372   -0.0089   -0.9584 H   0  0  0  0  0  0  0  0  0  0  0  0
   -0.5399    0.0019   -0.9565 H   0  0  0  0  0  0  0  0  0  0  0  0
   -0.5376   -0.0424    3.3867 H   0  0  0  0  0  0  0  0  0  0  0  0
    1.9615   -0.0478    3.3749 H   0  0  0  0  0  0  0  0  0  0  0  0
   -2.5218   -0.9938   -0.4362 H   0  0  0  0  0  0  0  0  0  0  0  0
   -2.5831    0.8383   -0.4922 H   0  0  0  0  0  0  0  0  0  0  0  0
   -4.4444   -0.9896    1.2072 H   0  0  0  0  0  0  0  0  0  0  0  0
   -4.5071    0.8134    1.1417 H   0  0  0  0  0  0  0  0  0  0  0  0
   -4.9040   -1.0997   -1.2717 H   0  0  0  0  0  0  0  0  0  0  0  0
   -4.9596    0.7055   -1.3431 H   0  0  0  0  0  0  0  0  0  0  0  0
   -6.8185   -1.0896    0.3786 H   0  0  0  0  0  0  0  0  0  0  0  0
   -6.8757    0.7130    0.2998 H   0  0  0  0  0  0  0  0  0  0  0  0
   -7.2905   -1.2305   -2.0970 H   0  0  0  0  0  0  0  0  0  0  0  0
   -7.3392    0.6008   -2.1843 H   0  0  0  0  0  0  0  0  0  0  0  0
  -11.3012   -0.1868   -0.4135 H   0  0  0  0  0  0  0  0  0  0  0  0
  -13.2381   -0.2239   -1.9923 H   0  0  0  0  0  0  0  0  0  0  0  0
  -10.4991   -0.4851   -5.3403 H   0  0  0  0  0  0  0  0  0  0  0  0
   -8.5732   -0.4543   -3.7827 H   0  0  0  0  0  0  0  0  0  0  0  0
  -13.9049    0.3454   -6.3524 H   0  0  0  0  0  0  0  0  0  0  0  0
  -14.7984   -1.5850   -5.0620 H   0  0  0  0  0  0  0  0  0  0  0  0
  -13.9204   -2.0146   -3.7099 H   0  0  0  0  0  0  0  0  0  0  0  0
  1  6  1  0  0  0  0
  2  1  2  0  0  0  0
  2  3  1  0  0  0  0
  3  4  2  0  0  0  0
  4  5  1  0  0  0  0
  4 32  1  0  0  0  0
  5 31  1  0  0  0  0
  6  5  2  0  0  0  0
  6 10  1  0  0  0  0
  7  3  1  0  0  0  0
  7  9  1  0  0  0  0
  8  7  2  0  0  0  0
  8 28  1  0  0  0  0
  9 26  1  0  0  0  0
 11 36  1  0  0  0  0
 11 35  1  0  0  0  0
 12 10  1  0  0  0  0
 12 11  1  0  0  0  0
 13 40  1  0  0  0  0
 13 39  1  0  0  0  0
 14 11  1  0  0  0  0
 14 13  1  0  0  0  0
 16 13  1  0  0  0  0
 16 15  1  0  0  0  0
 17 15  1  0  0  0  0
 17 18  1  0  0  0  0
 18 43  1  0  0  0  0
 19 18  2  0  0  0  0
 19 44  1  0  0  0  0
 20 19  1  0  0  0  0
 21 20  2  0  0  0  0
 21 22  1  0  0  0  0
 22 17  2  0  0  0  0
 23 20  1  0  0  0  0
 23 24  1  0  0  0  0
 24 49  1  0  0  0  0
 25 23  2  0  0  0  0
 27  9  1  0  0  0  0
 29  2  1  0  0  0  0
 30  1  1  0  0  0  0
 33 12  1  0  0  0  0
 34 12  1  0  0  0  0
 37 14  1  0  0  0  0
 38 14  1  0  0  0  0
 41 16  1  0  0  0  0
 42 16  1  0  0  0  0
 45 21  1  0  0  0  0
 46 22  1  0  0  0  0
 47 25  1  0  0  0  0
 48 24  1  0  0  0  0
M  END