B47
  Mrv0541 08111511043D          

 38 39  0  0  0  0            999 V2000
    0.0000    0.0000    0.0000 C   0  0  0  0  0  0  0  0  0  0  0  0
    1.4472    0.0000    0.0000 C   0  0  0  0  0  0  0  0  0  0  0  0
    2.1817    0.0000    1.1973 C   0  0  0  0  0  0  0  0  0  0  0  0
    1.4748   -0.0001    2.3888 C   0  0  0  0  0  0  0  0  0  0  0  0
    1.8754   -0.0110   -1.3292 N   0  0  0  0  0  0  0  0  0  0  0  0
   -0.4099   -0.0174   -1.3855 C   0  0  0  0  0  0  0  0  0  0  0  0
    0.7487   -0.0230   -2.1567 C   0  0  0  0  0  0  0  0  0  0  0  0
   -0.6646    0.0071    1.2355 C   0  0  0  0  0  0  0  0  0  0  0  0
    0.0705    0.0105    2.4202 C   0  0  0  0  0  0  0  0  0  0  0  0
   -2.0449   -0.0936    1.3329 O   0  0  0  0  0  0  0  0  0  0  0  0
   -2.7476    1.0292    0.7773 C   0  0  2  0  0  0  0  0  0  0  0  0
   -4.1798    0.5432    0.5251 C   0  0  2  0  0  0  0  0  0  0  0  0
   -4.2315   -0.2896   -0.7684 C   0  0  1  0  0  0  0  0  0  0  0  0
   -5.5068   -0.9511   -0.9497 N   0  0  1  0  0  0  0  0  0  0  0  0
   -5.6052   -1.6926   -2.2072 C   0  0  1  0  0  0  0  0  0  0  0  0
   -6.6086   -2.8435   -2.1176 C   0  0  0  0  0  0  0  0  0  0  0  0
   -6.0065   -0.7837   -3.3705 C   0  0  0  0  0  0  0  0  0  0  0  0
   -4.9671    1.7200    0.4267 O   0  0  0  0  0  0  0  0  0  0  0  0
    3.2792   -0.0017    1.1871 H   0  0  0  0  0  0  0  0  0  0  0  0
    2.0236   -0.0036    3.3430 H   0  0  0  0  0  0  0  0  0  0  0  0
    2.8133   -0.0125   -1.6264 H   0  0  0  0  0  0  0  0  0  0  0  0
   -1.4349   -0.0370   -1.7447 H   0  0  0  0  0  0  0  0  0  0  0  0
    0.8602   -0.0355   -3.2425 H   0  0  0  0  0  0  0  0  0  0  0  0
   -0.4583    0.0086    3.3839 H   0  0  0  0  0  0  0  0  0  0  0  0
   -4.5274   -0.0676    1.4056 H   0  0  0  0  0  0  0  0  0  0  0  0
   -4.0701    0.4024   -1.6430 H   0  0  0  0  0  0  0  0  0  0  0  0
   -3.3639   -1.0138   -0.7375 H   0  0  0  0  0  0  0  0  0  0  0  0
   -6.3095   -3.5751   -1.3293 H   0  0  0  0  0  0  0  0  0  0  0  0
   -7.6313   -2.4627   -1.8837 H   0  0  0  0  0  0  0  0  0  0  0  0
   -6.6425   -3.3747   -3.0986 H   0  0  0  0  0  0  0  0  0  0  0  0
   -6.0419   -1.3879   -4.3083 H   0  0  0  0  0  0  0  0  0  0  0  0
   -7.0126   -0.3348   -3.1937 H   0  0  0  0  0  0  0  0  0  0  0  0
   -5.2682    0.0421   -3.5061 H   0  0  0  0  0  0  0  0  0  0  0  0
   -4.5978   -2.1479   -2.4706 H   0  0  0  0  0  0  0  0  0  0  0  0
   -5.6926   -1.5623   -0.1758 H   0  0  0  0  0  0  0  0  0  0  0  0
   -5.8395    1.4493    0.1146 H   0  0  0  0  0  0  0  0  0  0  0  0
   -2.2657    1.3763   -0.1713 H   0  0  0  0  0  0  0  0  0  0  0  0
   -2.7481    1.8592    1.5308 H   0  0  0  0  0  0  0  0  0  0  0  0
  1  8  1  0  0  0  0
  2  1  2  0  0  0  0
  2  3  1  0  0  0  0
  3  4  2  0  0  0  0
  4  9  1  0  0  0  0
  4 20  1  0  0  0  0
  5  2  1  0  0  0  0
  6  1  1  0  0  0  0
  7  5  1  0  0  0  0
  7  6  2  0  0  0  0
  8 10  1  0  0  0  0
  8  9  2  0  0  0  0
  9 24  1  0  0  0  0
 11 10  1  0  0  0  0
 11 38  1  0  0  0  0
 12 11  1  0  0  0  0
 12 25  1  1  0  0  0
 13 12  1  0  0  0  0
 13 27  1  0  0  0  0
 14 13  1  0  0  0  0
 14 35  1  0  0  0  0
 15 14  1  0  0  0  0
 15 16  1  0  0  0  0
 16 29  1  0  0  0  0
 16 28  1  0  0  0  0
 17 15  1  0  0  0  0
 17 32  1  0  0  0  0
 18 12  1  0  0  0  0
 19  3  1  0  0  0  0
 21  5  1  0  0  0  0
 22  6  1  0  0  0  0
 23  7  1  0  0  0  0
 26 13  1  0  0  0  0
 30 16  1  0  0  0  0
 31 17  1  0  0  0  0
 33 17  1  0  0  0  0
 34 15  1  0  0  0  0
 36 18  1  0  0  0  0
 37 11  1  0  0  0  0
M  END