B49
  Mrv0541 08111511043D          

 40 42  0  0  0  0            999 V2000
    0.0000    0.0000    0.0000 S   0  0  0  0  0  0  0  0  0  0  0  0
    1.6949    0.0000    0.0000 C   0  0  0  0  0  0  0  0  0  0  0  0
    2.4699    0.0000    1.1819 C   0  0  0  0  0  0  0  0  0  0  0  0
    1.8899    0.0223    2.4781 N   0  0  0  0  0  0  0  0  0  0  0  0
    0.5635    0.5083    2.6315 C   0  0  0  0  0  0  0  0  0  0  0  0
   -0.3593    0.5517    1.5618 C   0  0  0  0  0  0  0  0  0  0  0  0
   -1.6437    1.0662    1.7637 C   0  0  0  0  0  0  0  0  0  0  0  0
   -2.0345    1.5341    3.0128 C   0  0  0  0  0  0  0  0  0  0  0  0
   -1.1252    1.5128    4.0703 C   0  0  0  0  0  0  0  0  0  0  0  0
    0.1598    1.0149    3.8880 C   0  0  0  0  0  0  0  0  0  0  0  0
    3.8783    0.0348    1.0621 C   0  0  0  0  0  0  0  0  0  0  0  0
    4.4819    0.0265   -0.1900 C   0  0  0  0  0  0  0  0  0  0  0  0
    3.7082    0.0018   -1.3503 C   0  0  0  0  0  0  0  0  0  0  0  0
    2.3219    0.0031   -1.2498 C   0  0  0  0  0  0  0  0  0  0  0  0
    2.2937   -1.0290    3.3941 C   0  0  2  0  0  0  0  0  0  0  0  0
    1.4679   -2.3514    3.3432 C   0  0  2  0  0  0  0  0  0  0  0  0
    2.9099   -3.4614    4.9759 C   0  0  0  0  0  0  0  0  0  0  0  0
    1.5613   -3.1538    4.5629 N   0  0  1  0  0  0  0  0  0  0  0  0
    0.7413   -2.6574    5.6440 C   0  0  0  0  0  0  0  0  0  0  0  0
    1.8701   -3.1460    2.1023 C   0  0  0  0  0  0  0  0  0  0  0  0
   -2.3480    1.0972    0.9168 H   0  0  0  0  0  0  0  0  0  0  0  0
   -3.0506    1.9262    3.1625 H   0  0  0  0  0  0  0  0  0  0  0  0
   -1.4221    1.8970    5.0578 H   0  0  0  0  0  0  0  0  0  0  0  0
    0.8633    1.0205    4.7348 H   0  0  0  0  0  0  0  0  0  0  0  0
    4.5094    0.0735    1.9635 H   0  0  0  0  0  0  0  0  0  0  0  0
    5.5798    0.0456   -0.2621 H   0  0  0  0  0  0  0  0  0  0  0  0
    4.1902   -0.0081   -2.3383 H   0  0  0  0  0  0  0  0  0  0  0  0
    1.7018    0.0070   -2.1607 H   0  0  0  0  0  0  0  0  0  0  0  0
    2.2256   -0.5934    4.4322 H   0  0  0  0  0  0  0  0  0  0  0  0
    3.3733   -1.2793    3.1957 H   0  0  0  0  0  0  0  0  0  0  0  0
    1.6406   -2.5372    1.1938 H   0  0  0  0  0  0  0  0  0  0  0  0
    2.9606   -3.3831    2.1025 H   0  0  0  0  0  0  0  0  0  0  0  0
    1.2985   -4.1032    2.0456 H   0  0  0  0  0  0  0  0  0  0  0  0
    0.3747   -2.0775    3.2264 H   0  0  0  0  0  0  0  0  0  0  0  0
    1.0720   -1.6565    6.0372 H   0  0  0  0  0  0  0  0  0  0  0  0
   -0.3192   -2.5675    5.2905 H   0  0  0  0  0  0  0  0  0  0  0  0
    0.7761   -3.3963    6.4875 H   0  0  0  0  0  0  0  0  0  0  0  0
    2.8679   -4.2181    5.8032 H   0  0  0  0  0  0  0  0  0  0  0  0
    3.4693   -3.9057    4.1121 H   0  0  0  0  0  0  0  0  0  0  0  0
    3.4787   -2.5639    5.3462 H   0  0  0  0  0  0  0  0  0  0  0  0
  1  2  1  0  0  0  0
  1  6  1  0  0  0  0
  2  3  1  0  0  0  0
  3  4  1  0  0  0  0
  4  5  1  0  0  0  0
  4 15  1  0  0  0  0
  5 10  1  0  0  0  0
  6  5  2  0  0  0  0
  6  7  1  0  0  0  0
  7  8  2  0  0  0  0
  8 22  1  0  0  0  0
  8  9  1  0  0  0  0
  9 23  1  0  0  0  0
 10  9  2  0  0  0  0
 10 24  1  0  0  0  0
 11  3  2  0  0  0  0
 11 25  1  0  0  0  0
 12 11  1  0  0  0  0
 13 12  2  0  0  0  0
 13 14  1  0  0  0  0
 14  2  2  0  0  0  0
 15 29  1  0  0  0  0
 16 15  1  0  0  0  0
 16 34  1  6  0  0  0
 16 18  1  0  0  0  0
 17 40  1  0  0  0  0
 17 38  1  0  0  0  0
 18 17  1  0  0  0  0
 18 19  1  0  0  0  0
 19 35  1  0  0  0  0
 19 37  1  0  0  0  0
 20 16  1  0  0  0  0
 20 32  1  0  0  0  0
 21  7  1  0  0  0  0
 26 12  1  0  0  0  0
 27 13  1  0  0  0  0
 28 14  1  0  0  0  0
 30 15  1  0  0  0  0
 31 20  1  0  0  0  0
 33 20  1  0  0  0  0
 36 19  1  0  0  0  0
 39 17  1  0  0  0  0
M  END