B55
  Mrv0541 08111511043D          

 28 29  0  0  0  0            999 V2000
    0.0000    0.0000    0.0000 O   0  0  0  0  0  0  0  0  0  0  0  0
    1.4350    0.0000    0.0000 C   0  0  1  0  0  0  0  0  0  0  0  0
    1.9625    0.0000    1.3658 N   0  0  0  0  0  0  0  0  0  0  0  0
    1.1612   -0.0824    2.4714 C   0  0  0  0  0  0  0  0  0  0  0  0
    1.6755   -0.0382    3.7425 C   0  0  0  0  0  0  0  0  0  0  0  0
    3.3913    0.1735    1.5435 C   0  0  0  0  0  0  0  0  0  0  0  0
    4.0810    0.2764    0.5084 O   0  0  0  0  0  0  0  0  0  0  0  0
    3.9402    0.2221    2.8282 N   0  0  0  0  0  0  0  0  0  0  0  0
    3.1221    0.1041    3.8917 C   0  0  0  0  0  0  0  0  0  0  0  0
    3.6553    0.0779    5.1628 N   0  0  0  0  0  0  0  0  0  0  0  0
    1.8860   -1.2077   -0.8548 C   0  0  2  0  0  0  0  0  0  0  0  0
   -0.5139   -1.2571   -0.4800 C   0  0  1  0  0  0  0  0  0  0  0  0
    0.6573   -2.0907   -0.9944 C   0  0  1  0  0  0  0  0  0  0  0  0
   -1.2725   -1.9419    0.6556 C   0  0  2  0  0  0  0  0  0  0  0  0
   -2.3495   -1.1526    1.1152 O   0  0  0  0  0  0  0  0  0  0  0  0
    1.0214   -0.1125    4.6168 H   0  0  0  0  0  0  0  0  0  0  0  0
    0.0708   -0.1823    2.2941 H   0  0  0  0  0  0  0  0  0  0  0  0
    3.0374    0.2053    5.9244 H   0  0  0  0  0  0  0  0  0  0  0  0
    4.6169    0.2795    5.2981 H   0  0  0  0  0  0  0  0  0  0  0  0
    2.7476   -1.7515   -0.3960 H   0  0  0  0  0  0  0  0  0  0  0  0
    2.2243   -0.8248   -1.8500 H   0  0  0  0  0  0  0  0  0  0  0  0
    1.7419    0.9812   -0.4721 H   0  0  0  0  0  0  0  0  0  0  0  0
    0.4919   -2.3848   -2.0599 H   0  0  0  0  0  0  0  0  0  0  0  0
    0.7696   -3.0298   -0.3964 H   0  0  0  0  0  0  0  0  0  0  0  0
   -2.0150   -0.2551    1.2443 H   0  0  0  0  0  0  0  0  0  0  0  0
   -0.5764   -2.1685    1.5078 H   0  0  0  0  0  0  0  0  0  0  0  0
   -1.7414   -2.8931    0.2882 H   0  0  0  0  0  0  0  0  0  0  0  0
   -1.2307   -0.9780   -1.3009 H   0  0  0  0  0  0  0  0  0  0  0  0
  1  2  1  0  0  0  0
  2 22  1  6  0  0  0
  2  3  1  0  0  0  0
  3  6  1  0  0  0  0
  3  4  1  0  0  0  0
  4  5  2  0  0  0  0
  5  9  1  0  0  0  0
  5 16  1  0  0  0  0
  6  8  1  0  0  0  0
  7  6  2  0  0  0  0
  8  9  2  0  0  0  0
  9 10  1  0  0  0  0
 10 19  1  0  0  0  0
 10 18  1  0  0  0  0
 11  2  1  0  0  0  0
 11 20  1  0  0  0  0
 12  1  1  0  0  0  0
 12 28  1  6  0  0  0
 12 14  1  0  0  0  0
 13 11  1  0  0  0  0
 13 12  1  0  0  0  0
 13 24  1  0  0  0  0
 14 15  1  0  0  0  0
 14 26  1  0  0  0  0
 15 25  1  0  0  0  0
 17  4  1  0  0  0  0
 21 11  1  0  0  0  0
 23 13  1  0  0  0  0
 27 14  1  0  0  0  0
M  END