B56
  Mrv0541 08111511043D          

 29 31  0  0  0  0            999 V2000
    0.0000    0.0000    0.0000 C   0  0  0  0  0  0  0  0  0  0  0  0
    1.4269    0.0000    0.0000 C   0  0  0  0  0  0  0  0  0  0  0  0
    2.1170    0.0000    1.2590 C   0  0  0  0  0  0  0  0  0  0  0  0
    1.4169   -0.0092    2.4368 C   0  0  0  0  0  0  0  0  0  0  0  0
    2.1697    0.0030   -1.1563 N   0  0  0  0  0  0  0  0  0  0  0  0
   -0.6857   -0.0201    1.2428 C   0  0  0  0  0  0  0  0  0  0  0  0
    0.0034   -0.0231    2.4309 C   0  0  0  0  0  0  0  0  0  0  0  0
   -0.6712    0.0133   -1.2809 C   0  0  0  0  0  0  0  0  0  0  0  0
    0.1061   -0.0175   -2.4520 C   0  0  0  0  0  0  0  0  0  0  0  0
    1.5337   -0.0126   -2.3264 C   0  0  0  0  0  0  0  0  0  0  0  0
    2.3938   -0.0389   -3.5646 C   0  0  2  0  0  0  0  0  0  0  0  0
    1.6645    0.4799   -4.7821 C   0  0  2  0  0  0  0  0  0  0  0  0
   -0.5631   -0.0263   -3.7805 C   0  0  2  0  0  0  0  0  0  0  0  0
    0.3606   -0.2610   -4.9566 C   0  0  1  0  0  0  0  0  0  0  0  0
   -2.0614   -0.0056   -1.3393 N   0  0  1  0  0  0  0  0  0  0  0  0
    3.2185    0.0046    1.2575 H   0  0  0  0  0  0  0  0  0  0  0  0
    1.9475   -0.0097    3.4009 H   0  0  0  0  0  0  0  0  0  0  0  0
   -1.7849   -0.0503    1.2758 H   0  0  0  0  0  0  0  0  0  0  0  0
   -0.5359   -0.0408    3.3893 H   0  0  0  0  0  0  0  0  0  0  0  0
    2.7099   -1.1042   -3.7381 H   0  0  0  0  0  0  0  0  0  0  0  0
    3.3278    0.5641   -3.4042 H   0  0  0  0  0  0  0  0  0  0  0  0
    2.3102    0.3400   -5.6880 H   0  0  0  0  0  0  0  0  0  0  0  0
    1.4679    1.5784   -4.6737 H   0  0  0  0  0  0  0  0  0  0  0  0
   -1.0844    0.9624   -3.9221 H   0  0  0  0  0  0  0  0  0  0  0  0
   -1.3537   -0.8273   -3.8017 H   0  0  0  0  0  0  0  0  0  0  0  0
   -0.1491    0.0736   -5.8976 H   0  0  0  0  0  0  0  0  0  0  0  0
    0.5674   -1.3591   -5.0609 H   0  0  0  0  0  0  0  0  0  0  0  0
   -2.5357    0.3318   -0.5340 H   0  0  0  0  0  0  0  0  0  0  0  0
   -2.4606    0.2981   -2.1985 H   0  0  0  0  0  0  0  0  0  0  0  0
  1  6  1  0  0  0  0
  2  1  1  0  0  0  0
  2  3  1  0  0  0  0
  3  4  2  0  0  0  0
  4 17  1  0  0  0  0
  5  2  2  0  0  0  0
  6 18  1  0  0  0  0
  6  7  2  0  0  0  0
  7  4  1  0  0  0  0
  7 19  1  0  0  0  0
  8  1  2  0  0  0  0
  9  8  1  0  0  0  0
  9 10  2  0  0  0  0
 10  5  1  0  0  0  0
 11 10  1  0  0  0  0
 11 21  1  0  0  0  0
 12 11  1  0  0  0  0
 12 23  1  0  0  0  0
 13  9  1  0  0  0  0
 14 12  1  0  0  0  0
 14 13  1  0  0  0  0
 15  8  1  0  0  0  0
 15 28  1  0  0  0  0
 16  3  1  0  0  0  0
 20 11  1  0  0  0  0
 22 12  1  0  0  0  0
 24 13  1  0  0  0  0
 25 13  1  0  0  0  0
 26 14  1  0  0  0  0
 27 14  1  0  0  0  0
 29 15  1  0  0  0  0
M  END