B6
  Mrv0541 08111511043D          

 41 41  0  0  0  0            999 V2000
    0.0000    0.0000    0.0000 C   0  0  0  0  0  0  0  0  0  0  0  0
    1.3942    0.0000    0.0000 C   0  0  0  0  0  0  0  0  0  0  0  0
    2.0763    0.0000    1.2220 C   0  0  0  0  0  0  0  0  0  0  0  0
    3.4505    0.0044    1.3546 O   0  0  0  0  0  0  0  0  0  0  0  0
    4.2002   -0.0338    0.1343 C   0  0  2  0  0  0  0  0  0  0  0  0
    5.6691   -0.0583    0.5725 C   0  0  2  0  0  0  0  0  0  0  0  0
    6.5651   -0.0097   -0.6784 C   0  0  1  0  0  0  0  0  0  0  0  0
    7.9660    0.1406   -0.3482 N   0  0  2  0  0  0  0  0  0  0  0  0
    8.8594   -0.1166   -1.4778 C   0  0  1  0  0  0  0  0  0  0  0  0
    8.8785    1.0493   -2.4676 C   0  0  0  0  0  0  0  0  0  0  0  0
   10.2909   -0.3901   -1.0139 C   0  0  0  0  0  0  0  0  0  0  0  0
    5.9669   -1.2697    1.2483 O   0  0  0  0  0  0  0  0  0  0  0  0
   -0.7179    0.0013    1.1993 C   0  0  0  0  0  0  0  0  0  0  0  0
   -0.0204   -0.0011    2.4162 C   0  0  0  0  0  0  0  0  0  0  0  0
    1.3677   -0.0004    2.4392 C   0  0  0  0  0  0  0  0  0  0  0  0
   -2.2030   -0.0182    1.1900 C   0  0  1  0  0  0  0  0  0  0  0  0
   -2.8378    1.3626    1.1878 C   0  0  0  0  0  0  0  0  0  0  0  0
   -2.2543    2.3579    0.4435 N   0  0  0  0  0  0  0  0  0  0  0  0
   -3.9007    1.5781    1.8056 O   0  0  0  0  0  0  0  0  0  0  0  0
   -0.5387   -0.0089   -0.9604 H   0  0  0  0  0  0  0  0  0  0  0  0
    1.9370   -0.0047   -0.9551 H   0  0  0  0  0  0  0  0  0  0  0  0
    5.8717    0.8154    1.2529 H   0  0  0  0  0  0  0  0  0  0  0  0
    6.3579   -0.9389   -1.2878 H   0  0  0  0  0  0  0  0  0  0  0  0
    6.2597    0.8831   -1.2935 H   0  0  0  0  0  0  0  0  0  0  0  0
    9.5726    0.8035   -3.3064 H   0  0  0  0  0  0  0  0  0  0  0  0
    7.8612    1.2306   -2.8889 H   0  0  0  0  0  0  0  0  0  0  0  0
    9.2308    1.9849   -1.9721 H   0  0  0  0  0  0  0  0  0  0  0  0
   10.7054    0.4886   -0.4646 H   0  0  0  0  0  0  0  0  0  0  0  0
   10.3308   -1.2823   -0.3442 H   0  0  0  0  0  0  0  0  0  0  0  0
   10.9313   -0.5878   -1.9062 H   0  0  0  0  0  0  0  0  0  0  0  0
    8.5130   -1.0350   -2.0520 H   0  0  0  0  0  0  0  0  0  0  0  0
    8.2043   -0.4608    0.4205 H   0  0  0  0  0  0  0  0  0  0  0  0
    5.3863   -1.3060    2.0194 H   0  0  0  0  0  0  0  0  0  0  0  0
    3.9820    0.8806   -0.4742 H   0  0  0  0  0  0  0  0  0  0  0  0
    3.9401   -0.9601   -0.4402 H   0  0  0  0  0  0  0  0  0  0  0  0
   -0.5798   -0.0048    3.3650 H   0  0  0  0  0  0  0  0  0  0  0  0
    1.9218   -0.0010    3.3885 H   0  0  0  0  0  0  0  0  0  0  0  0
   -1.3504    2.2322    0.0647 H   0  0  0  0  0  0  0  0  0  0  0  0
   -2.6315    3.2724    0.4784 H   0  0  0  0  0  0  0  0  0  0  0  0
   -2.5814   -0.5619    0.2818 H   0  0  0  0  0  0  0  0  0  0  0  0
   -2.5909   -0.5606    2.0949 H   0  0  0  0  0  0  0  0  0  0  0  0
  1  2  2  0  0  0  0
  1 13  1  0  0  0  0
  2  3  1  0  0  0  0
  3  4  1  0  0  0  0
  3 15  2  0  0  0  0
  5  4  1  0  0  0  0
  5  6  1  0  0  0  0
  6 12  1  0  0  0  0
  6 22  1  1  0  0  0
  7  6  1  0  0  0  0
  7  8  1  0  0  0  0
  8 32  1  0  0  0  0
  9  8  1  0  0  0  0
  9 11  1  0  0  0  0
 10  9  1  0  0  0  0
 10 27  1  0  0  0  0
 11 28  1  0  0  0  0
 11 29  1  0  0  0  0
 12 33  1  0  0  0  0
 13 14  2  0  0  0  0
 14 15  1  0  0  0  0
 14 36  1  0  0  0  0
 15 37  1  0  0  0  0
 16 13  1  0  0  0  0
 16 41  1  0  0  0  0
 17 16  1  0  0  0  0
 17 19  2  0  0  0  0
 18 17  1  0  0  0  0
 18 39  1  0  0  0  0
 20  1  1  0  0  0  0
 21  2  1  0  0  0  0
 23  7  1  0  0  0  0
 24  7  1  0  0  0  0
 25 10  1  0  0  0  0
 26 10  1  0  0  0  0
 30 11  1  0  0  0  0
 31  9  1  0  0  0  0
 34  5  1  0  0  0  0
 35  5  1  0  0  0  0
 38 18  1  0  0  0  0
 40 16  1  0  0  0  0
M  END