B61
  Mrv0541 08111511043D          

 71 72  0  0  0  0            999 V2000
    0.0000    0.0000    0.0000 C   0  0  0  0  0  0  0  0  0  0  0  0
    1.3944    0.0000    0.0000 C   0  0  0  0  0  0  0  0  0  0  0  0
    2.1089    0.0000    1.1995 C   0  0  0  0  0  0  0  0  0  0  0  0
    1.4265   -0.0053    2.4152 C   0  0  0  0  0  0  0  0  0  0  0  0
    0.0044   -0.0077    2.4237 C   0  0  0  0  0  0  0  0  0  0  0  0
   -0.6956   -0.0010    1.2178 C   0  0  0  0  0  0  0  0  0  0  0  0
    2.0255   -0.0105    3.6597 O   0  0  0  0  0  0  0  0  0  0  0  0
    3.4477    0.0036    3.6629 C   0  0  0  0  0  0  0  0  0  0  0  0
   -0.5766   -0.0165    3.6740 O   0  0  0  0  0  0  0  0  0  0  0  0
   -1.9991   -0.0884    3.7049 C   0  0  0  0  0  0  0  0  0  0  0  0
    0.4114    1.6022   -2.1492 H   0  0  0  0  0  0  0  0  0  0  0  0
   -1.4559    1.4351   -3.1931 N   0  0  2  0  0  0  0  0  0  0  0  0
   -0.6763    1.3568   -1.9637 C   0  0  1  0  0  0  0  0  0  0  0  0
   -0.8186    0.7698   -4.3068 C   0  0  0  0  0  0  0  0  0  0  0  0
   -3.0527    3.3028   -2.7010 C   0  0  1  0  0  0  0  0  0  0  0  0
   -1.8622    2.7979   -3.5161 C   0  0  1  0  0  0  0  0  0  0  0  0
   -5.5500    3.0818   -2.2682 C   0  0  2  0  0  0  0  0  0  0  0  0
   -4.3372    2.6079   -3.0945 C   0  0  2  0  0  0  0  0  0  0  0  0
   -6.7963    2.2358   -2.6391 C   0  0  2  0  0  0  0  0  0  0  0  0
   -6.0088    5.5816   -2.9276 N   0  0  0  0  0  0  0  0  0  0  0  0
   -7.0562    2.2170   -4.1308 C   0  0  0  0  0  0  0  0  0  0  0  0
   -5.8087    4.4801   -2.6134 C   0  0  0  0  0  0  0  0  0  0  0  0
   -8.0278    2.7274   -1.9057 C   0  0  0  0  0  0  0  0  0  0  0  0
   -5.2661    2.9208   -0.7928 C   0  0  0  0  0  0  0  0  0  0  0  0
   -4.8794    1.6568   -0.3154 C   0  0  0  0  0  0  0  0  0  0  0  0
   -4.5874    1.4717    1.0335 C   0  0  0  0  0  0  0  0  0  0  0  0
   -4.6837    2.5633    1.9373 C   0  0  0  0  0  0  0  0  0  0  0  0
   -5.0786    3.8116    1.4591 C   0  0  0  0  0  0  0  0  0  0  0  0
   -5.3700    3.9839    0.1035 C   0  0  0  0  0  0  0  0  0  0  0  0
   -4.1556    0.2781    1.5822 O   0  0  0  0  0  0  0  0  0  0  0  0
   -4.3836   -0.8849    0.7924 C   0  0  0  0  0  0  0  0  0  0  0  0
   -4.3627    2.2801    3.2488 O   0  0  0  0  0  0  0  0  0  0  0  0
   -4.4005    3.3825    4.1497 C   0  0  0  0  0  0  0  0  0  0  0  0
    3.7037    0.0026    4.7529 H   0  0  0  0  0  0  0  0  0  0  0  0
    3.8546   -0.9086    3.1625 H   0  0  0  0  0  0  0  0  0  0  0  0
    3.8369    0.9266    3.1683 H   0  0  0  0  0  0  0  0  0  0  0  0
    3.2075    0.0017    1.1740 H   0  0  0  0  0  0  0  0  0  0  0  0
    1.9420   -0.0007   -0.9540 H   0  0  0  0  0  0  0  0  0  0  0  0
   -1.7981    0.0088    1.2162 H   0  0  0  0  0  0  0  0  0  0  0  0
   -2.3660   -1.0010    3.1746 H   0  0  0  0  0  0  0  0  0  0  0  0
   -2.4595    0.8260    3.2530 H   0  0  0  0  0  0  0  0  0  0  0  0
   -2.2279   -0.1481    4.7988 H   0  0  0  0  0  0  0  0  0  0  0  0
   -1.0721    2.1217   -1.2369 H   0  0  0  0  0  0  0  0  0  0  0  0
   -1.8220   -0.2927   -1.1087 H   0  0  0  0  0  0  0  0  0  0  0  0
   -0.3090   -0.8012   -1.9589 H   0  0  0  0  0  0  0  0  0  0  0  0
   -0.7488   -0.0167   -1.2870 C   0  0  2  0  0  0  0  0  0  0  0  0
    0.1326    1.2702   -4.6392 H   0  0  0  0  0  0  0  0  0  0  0  0
   -0.5788   -0.2854   -4.0130 H   0  0  0  0  0  0  0  0  0  0  0  0
   -1.5293    0.7453   -5.1742 H   0  0  0  0  0  0  0  0  0  0  0  0
   -1.0086    3.5237   -3.3672 H   0  0  0  0  0  0  0  0  0  0  0  0
   -2.1458    2.8368   -4.6069 H   0  0  0  0  0  0  0  0  0  0  0  0
   -2.8686    3.1653   -1.6032 H   0  0  0  0  0  0  0  0  0  0  0  0
   -3.1490    4.4053   -2.8895 H   0  0  0  0  0  0  0  0  0  0  0  0
   -4.2281    1.5000   -2.9646 H   0  0  0  0  0  0  0  0  0  0  0  0
   -4.5424    2.8034   -4.1805 H   0  0  0  0  0  0  0  0  0  0  0  0
   -6.5794    1.1815   -2.3039 H   0  0  0  0  0  0  0  0  0  0  0  0
   -6.2753    1.6225   -4.6635 H   0  0  0  0  0  0  0  0  0  0  0  0
   -8.0498    1.7482   -4.3358 H   0  0  0  0  0  0  0  0  0  0  0  0
   -7.0637    3.2531   -4.5472 H   0  0  0  0  0  0  0  0  0  0  0  0
   -8.8801    2.0272   -2.0809 H   0  0  0  0  0  0  0  0  0  0  0  0
   -8.3241    3.7414   -2.2682 H   0  0  0  0  0  0  0  0  0  0  0  0
   -7.8339    2.7849   -0.8072 H   0  0  0  0  0  0  0  0  0  0  0  0
   -5.6824    4.9828   -0.2375 H   0  0  0  0  0  0  0  0  0  0  0  0
   -5.1652    4.6702    2.1403 H   0  0  0  0  0  0  0  0  0  0  0  0
   -5.4367    3.7924    4.2265 H   0  0  0  0  0  0  0  0  0  0  0  0
   -4.0811    2.9301    5.1228 H   0  0  0  0  0  0  0  0  0  0  0  0
   -3.6853    4.1791    3.8314 H   0  0  0  0  0  0  0  0  0  0  0  0
   -4.7940    0.8118   -1.0150 H   0  0  0  0  0  0  0  0  0  0  0  0
   -5.4535   -0.9575    0.4827 H   0  0  0  0  0  0  0  0  0  0  0  0
   -3.7142   -0.8832   -0.1033 H   0  0  0  0  0  0  0  0  0  0  0  0
   -4.1106   -1.7230    1.4834 H   0  0  0  0  0  0  0  0  0  0  0  0
  1  6  1  0  0  0  0
  2  1  2  0  0  0  0
  2  3  1  0  0  0  0
  3  4  2  0  0  0  0
  4  5  1  0  0  0  0
  4  7  1  0  0  0  0
  5  9  1  0  0  0  0
  6  5  2  0  0  0  0
  7  8  1  0  0  0  0
  8 34  1  0  0  0  0
  9 10  1  0  0  0  0
 10 42  1  0  0  0  0
 11 13  1  0  0  0  0
 12 13  1  0  0  0  0
 13 46  1  0  0  0  0
 13 43  1  0  0  0  0
 14 12  1  0  0  0  0
 14 48  1  0  0  0  0
 15 52  1  0  0  0  0
 16 12  1  0  0  0  0
 16 15  1  0  0  0  0
 16 50  1  0  0  0  0
 17 18  1  6  0  0  0
 17 24  1  0  0  0  0
 18 15  1  0  0  0  0
 18 54  1  0  0  0  0
 19 17  1  0  0  0  0
 19 56  1  0  0  0  0
 19 23  1  0  0  0  0
 20 22  3  0  0  0  0
 21 19  1  0  0  0  0
 22 17  1  0  0  0  0
 23 62  1  0  0  0  0
 24 25  2  0  0  0  0
 24 29  1  0  0  0  0
 25 26  1  0  0  0  0
 26 30  1  0  0  0  0
 26 27  2  0  0  0  0
 27 32  1  0  0  0  0
 28 27  1  0  0  0  0
 28 64  1  0  0  0  0
 29 28  2  0  0  0  0
 31 30  1  0  0  0  0
 31 71  1  0  0  0  0
 32 33  1  0  0  0  0
 33 65  1  0  0  0  0
 33 66  1  0  0  0  0
 35  8  1  0  0  0  0
 36  8  1  0  0  0  0
 37  3  1  0  0  0  0
 38  2  1  0  0  0  0
 39  6  1  0  0  0  0
 40 10  1  0  0  0  0
 41 10  1  0  0  0  0
 45 46  1  0  0  0  0
 46  1  1  0  0  0  0
 46 44  1  0  0  0  0
 47 14  1  0  0  0  0
 49 14  1  0  0  0  0
 51 16  1  0  0  0  0
 53 15  1  0  0  0  0
 55 18  1  0  0  0  0
 57 21  1  0  0  0  0
 58 21  1  0  0  0  0
 59 21  1  0  0  0  0
 60 23  1  0  0  0  0
 61 23  1  0  0  0  0
 63 29  1  0  0  0  0
 67 33  1  0  0  0  0
 68 25  1  0  0  0  0
 69 31  1  0  0  0  0
 70 31  1  0  0  0  0
M  END