B8
  Mrv0541 08111511043D          

 51 52  0  0  0  0            999 V2000
    0.0000    0.0000    0.0000 O   0  0  0  0  0  0  0  0  0  0  0  0
    1.4285    0.0000    0.0000 C   0  0  1  0  0  0  0  0  0  0  0  0
    1.8674    0.0000    1.4345 C   0  0  1  0  0  0  0  0  0  0  0  0
    3.2925   -0.3654    1.7514 C   0  0  1  0  0  0  0  0  0  0  0  0
    2.8295    1.0509    1.9197 C   0  0  1  0  0  0  0  0  0  0  0  0
   -0.5341    0.0027   -1.3223 C   0  0  1  0  0  0  0  0  0  0  0  0
   -2.0491    0.0116   -1.1719 C   0  0  1  0  0  0  0  0  0  0  0  0
   -2.7142   -0.0494   -2.5000 C   0  0  0  0  0  0  0  0  0  0  0  0
   -2.7468   -1.2552   -3.2159 C   0  0  0  0  0  0  0  0  0  0  0  0
   -3.3734   -1.3326   -4.4521 C   0  0  0  0  0  0  0  0  0  0  0  0
   -3.9824   -0.1808   -4.9862 C   0  0  0  0  0  0  0  0  0  0  0  0
   -4.5771   -0.3629   -6.2206 O   0  0  0  0  0  0  0  0  0  0  0  0
   -5.2199    0.7869   -6.7821 C   0  0  2  0  0  0  0  0  0  0  0  0
   -5.7833    0.3098   -8.1256 C   0  0  2  0  0  0  0  0  0  0  0  0
   -4.7315   -0.0323   -9.0147 O   0  0  0  0  0  0  0  0  0  0  0  0
   -6.5663    1.4633   -8.7782 C   0  0  2  0  0  0  0  0  0  0  0  0
   -7.2689    1.0483   -9.9735 N   0  0  1  0  0  0  0  0  0  0  0  0
   -7.7506    2.1683  -10.7818 C   0  0  1  0  0  0  0  0  0  0  0  0
   -8.0819    1.7320  -12.2098 C   0  0  0  0  0  0  0  0  0  0  0  0
   -8.9894    2.8237  -10.1690 C   0  0  0  0  0  0  0  0  0  0  0  0
   -3.3250    1.0833   -3.0433 C   0  0  0  0  0  0  0  0  0  0  0  0
   -3.9609    1.0284   -4.2836 C   0  0  0  0  0  0  0  0  0  0  0  0
    3.4980   -0.9766    2.6477 H   0  0  0  0  0  0  0  0  0  0  0  0
    3.9791   -0.6095    0.9213 H   0  0  0  0  0  0  0  0  0  0  0  0
    3.1871    1.8195    1.2115 H   0  0  0  0  0  0  0  0  0  0  0  0
    2.7009    1.4592    2.9376 H   0  0  0  0  0  0  0  0  0  0  0  0
    1.0649   -0.3358    2.1221 H   0  0  0  0  0  0  0  0  0  0  0  0
    1.7991   -0.9213   -0.5269 H   0  0  0  0  0  0  0  0  0  0  0  0
    1.8027    0.9075   -0.5463 H   0  0  0  0  0  0  0  0  0  0  0  0
   -4.2204   -0.7288   -8.5826 H   0  0  0  0  0  0  0  0  0  0  0  0
   -8.8871    0.9591  -12.2125 H   0  0  0  0  0  0  0  0  0  0  0  0
   -8.4357    2.6182  -12.7886 H   0  0  0  0  0  0  0  0  0  0  0  0
   -7.1813    1.3126  -12.7190 H   0  0  0  0  0  0  0  0  0  0  0  0
   -8.7651    3.2258   -9.1525 H   0  0  0  0  0  0  0  0  0  0  0  0
   -9.8261    2.0903  -10.0854 H   0  0  0  0  0  0  0  0  0  0  0  0
   -9.3154    3.6682  -10.8220 H   0  0  0  0  0  0  0  0  0  0  0  0
   -6.9507    2.9732  -10.8556 H   0  0  0  0  0  0  0  0  0  0  0  0
   -6.6797    0.4540  -10.5294 H   0  0  0  0  0  0  0  0  0  0  0  0
   -5.8404    2.3080   -8.9707 H   0  0  0  0  0  0  0  0  0  0  0  0
   -7.3335    1.8280   -8.0385 H   0  0  0  0  0  0  0  0  0  0  0  0
   -6.4432   -0.5867   -7.9582 H   0  0  0  0  0  0  0  0  0  0  0  0
   -4.4673    1.6034   -6.9334 H   0  0  0  0  0  0  0  0  0  0  0  0
   -6.0431    1.1323   -6.1060 H   0  0  0  0  0  0  0  0  0  0  0  0
   -3.4046   -2.2739   -5.0182 H   0  0  0  0  0  0  0  0  0  0  0  0
   -2.2704   -2.1515   -2.7894 H   0  0  0  0  0  0  0  0  0  0  0  0
   -4.4349    1.9320   -4.6901 H   0  0  0  0  0  0  0  0  0  0  0  0
   -3.3084    2.0340   -2.4884 H   0  0  0  0  0  0  0  0  0  0  0  0
   -2.3585   -0.8682   -0.5464 H   0  0  0  0  0  0  0  0  0  0  0  0
   -2.3556    0.9369   -0.6162 H   0  0  0  0  0  0  0  0  0  0  0  0
   -0.1784    0.9133   -1.8732 H   0  0  0  0  0  0  0  0  0  0  0  0
   -0.1922   -0.9152   -1.8711 H   0  0  0  0  0  0  0  0  0  0  0  0
  2  1  1  0  0  0  0
  2  3  1  0  0  0  0
  3  4  1  0  0  0  0
  3  5  1  0  0  0  0
  3 27  1  0  0  0  0
  4  5  1  0  0  0  0
  4 23  1  0  0  0  0
  5 26  1  0  0  0  0
  6  1  1  0  0  0  0
  6  7  1  0  0  0  0
  7 49  1  0  0  0  0
  7 48  1  0  0  0  0
  8  7  1  0  0  0  0
  9  8  2  0  0  0  0
  9 45  1  0  0  0  0
 10  9  1  0  0  0  0
 11 10  2  0  0  0  0
 11 22  1  0  0  0  0
 12 11  1  0  0  0  0
 13 12  1  0  0  0  0
 13 43  1  0  0  0  0
 14 13  1  0  0  0  0
 14 41  1  1  0  0  0
 15 14  1  0  0  0  0
 15 30  1  0  0  0  0
 16 14  1  0  0  0  0
 16 40  1  0  0  0  0
 17 16  1  0  0  0  0
 18 17  1  0  0  0  0
 18 20  1  0  0  0  0
 19 18  1  0  0  0  0
 20 35  1  0  0  0  0
 20 34  1  0  0  0  0
 21  8  1  0  0  0  0
 21 47  1  0  0  0  0
 22 21  2  0  0  0  0
 24  4  1  0  0  0  0
 25  5  1  0  0  0  0
 28  2  1  0  0  0  0
 29  2  1  0  0  0  0
 31 19  1  0  0  0  0
 32 19  1  0  0  0  0
 33 19  1  0  0  0  0
 36 20  1  0  0  0  0
 37 18  1  0  0  0  0
 38 17  1  0  0  0  0
 39 16  1  0  0  0  0
 42 13  1  0  0  0  0
 44 10  1  0  0  0  0
 46 22  1  0  0  0  0
 50  6  1  0  0  0  0
 51  6  1  0  0  0  0
M  END