3
 OpenBabel11300911163D

 13 12  0  0  0  0  0  0  0  0999 V2000
    3.5876   -1.5455    2.3674 O   0  0  0  0  0
    2.9075   -1.8000    1.3872 C   0  0  0  0  0
    3.3183   -1.8194    0.1003 O   0  0  0  0  0
    4.6998   -1.4950   -0.1128 C   0  0  0  0  0
    5.5585   -2.7377    0.0289 C   0  0  0  0  0
    1.5947   -2.1150    1.4515 N   0  0  0  0  0
    5.0314   -0.6989    0.5638 H   0  0  0  0  0
    4.7835   -1.1053   -1.1325 H   0  0  0  0  0
    5.4931   -3.1478    1.0420 H   0  0  0  0  0
    6.6065   -2.5122   -0.1888 H   0  0  0  0  0
    5.2164   -3.5219   -0.6545 H   0  0  0  0  0
    1.1433   -2.1474    2.3525 H   0  0  0  0  0
    1.0855   -2.3206    0.6072 H   0  0  0  0  0
  1  2  2  0  0  0
  2  6  1  0  0  0
  2  3  1  0  0  0
  3  4  1  0  0  0
  4  5  1  0  0  0
  4  7  1  0  0  0
  4  8  1  0  0  0
  5  9  1  0  0  0
  5 10  1  0  0  0
  5 11  1  0  0  0
  6 12  1  0  0  0
  6 13  1  0  0  0
M  END