6
 OpenBabel11300911503D

 34 34  0  0  0  0  0  0  0  0999 V2000
    3.9587   -0.7204   -1.3460 C   0  0  0  0  0
    3.0724   -0.0751   -0.2800 C   0  0  0  0  0
    3.0433    1.4720   -0.3208 C   0  0  0  0  0
    2.0285    2.0449    0.7192 C   0  0  0  0  0
    2.3214    1.7208    2.1931 C   0  0  0  0  0
    1.2614    2.2894    3.1605 C   0  0  0  0  0
    1.5460    1.8095    4.5865 C   0  0  0  0  0
    1.2037    3.8184    3.1416 C   0  0  0  0  0
    2.5383    1.9612   -1.6741 C   0  0  0  0  0
    1.7328    1.3431   -2.3664 O   0  0  0  0  0
    2.9553    3.2070   -2.0572 N   0  0  0  0  0
    4.0446    3.8573   -1.5678 C   0  0  0  0  0
    4.5321    4.8193   -2.1521 O   0  0  0  0  0
    4.6216    3.3390   -0.4519 N   0  0  0  0  0
    4.4149    2.0595   -0.0181 C   0  0  0  0  0
    5.2854    1.4780    0.6244 O   0  0  0  0  0
    3.9183   -1.8106   -1.2508 H   0  0  0  0  0
    5.0044   -0.4179   -1.2395 H   0  0  0  0  0
    3.6317   -0.4679   -2.3585 H   0  0  0  0  0
    3.4314   -0.4248    0.6950 H   0  0  0  0  0
    2.0548   -0.4689   -0.3982 H   0  0  0  0  0
    1.0226    1.6759    0.4752 H   0  0  0  0  0
    1.9818    3.1343    0.6021 H   0  0  0  0  0
    3.3082    2.1073    2.4736 H   0  0  0  0  0
    2.3552    0.6335    2.3247 H   0  0  0  0  0
    0.2766    1.9047    2.8668 H   0  0  0  0  0
    2.5151    2.1755    4.9429 H   0  0  0  0  0
    1.5563    0.7158    4.6366 H   0  0  0  0  0
    0.7749    2.1667    5.2777 H   0  0  0  0  0
    2.1812    4.2553    3.3723 H   0  0  0  0  0
    0.4856    4.1880    3.8817 H   0  0  0  0  0
    0.8809    4.1973    2.1677 H   0  0  0  0  0
    2.6058    3.5403   -2.9453 H   0  0  0  0  0
    5.5203    3.7388   -0.2172 H   0  0  0  0  0
  1  2  1  0  0  0
  1 17  1  0  0  0
  1 18  1  0  0  0
  1 19  1  0  0  0
  2  3  1  0  0  0
  2 20  1  0  0  0
  2 21  1  0  0  0
  3 15  1  0  0  0
  3  9  1  0  0  0
  3  4  1  0  0  0
  4  5  1  0  0  0
  4 22  1  0  0  0
  4 23  1  0  0  0
  5  6  1  0  0  0
  5 24  1  0  0  0
  5 25  1  0  0  0
  6  8  1  0  0  0
  6  7  1  0  0  0
  6 26  1  0  0  0
  7 27  1  0  0  0
  7 28  1  0  0  0
  7 29  1  0  0  0
  8 30  1  0  0  0
  8 31  1  0  0  0
  8 32  1  0  0  0
  9 11  1  0  0  0
  9 10  2  0  0  0
 11 12  1  0  0  0
 11 33  1  0  0  0
 12 14  1  0  0  0
 12 13  2  0  0  0
 14 15  1  0  0  0
 14 34  1  0  0  0
 15 16  2  0  0  0
M  END