7
 OpenBabel11300911163D

 24 25  0  0  0  0  0  0  0  0999 V2000
    0.9899    0.0563   -0.0021 C   0  0  0  0  0
    2.4383   -0.0111    0.0036 N   0  0  0  0  0
    3.0501   -1.2808    0.0058 C   0  0  0  0  0
    2.3814   -2.3173    0.0017 O   0  0  0  0  0
    4.4476   -1.3124    0.0130 N   0  0  0  0  0
    5.1576   -2.5789    0.0146 C   0  0  0  0  0
    5.1490   -0.1320    0.0173 C   0  0  0  0  0
    6.5049   -0.0009    0.0245 N   0  0  0  0  0
    6.7090    1.3018    0.0264 C   0  0  0  0  0
    5.5289    1.9975    0.0203 N   0  0  0  0  0
    5.3864    3.4316    0.0190 C   0  0  0  0  0
    4.5218    1.0770    0.0148 C   0  0  0  0  0
    3.1087    1.2173    0.0078 C   0  0  0  0  0
    2.5441    2.3081    0.0059 O   0  0  0  0  0
    0.5171   -0.9283   -0.0132 H   0  0  0  0  0
    0.6642    0.6159   -0.8852 H   0  0  0  0  0
    0.6577    0.5990    0.8894 H   0  0  0  0  0
    4.4734   -3.4314    0.0171 H   0  0  0  0  0
    5.7873   -2.6344    0.9081 H   0  0  0  0  0
    5.7847   -2.6373   -0.8806 H   0  0  0  0  0
    7.6779    1.7855    0.0319 H   0  0  0  0  0
    6.3756    3.8964    0.0337 H   0  0  0  0  0
    4.8278    3.7268    0.9106 H   0  0  0  0  0
    4.8538    3.7272   -0.8883 H   0  0  0  0  0
  1  2  1  0  0  0
  1 15  1  0  0  0
  1 16  1  0  0  0
  1 17  1  0  0  0
  2  3  1  0  0  0
  2 13  1  0  0  0
  3  5  1  0  0  0
  3  4  2  0  0  0
  5  7  1  0  0  0
  5  6  1  0  0  0
  6 18  1  0  0  0
  6 19  1  0  0  0
  6 20  1  0  0  0
  7  8  1  0  0  0
  7 12  2  0  0  0
  8  9  2  0  0  0
  9 10  1  0  0  0
  9 21  1  0  0  0
 10 12  1  0  0  0
 10 11  1  0  0  0
 11 22  1  0  0  0
 11 23  1  0  0  0
 11 24  1  0  0  0
 12 13  1  0  0  0
 13 14  2  0  0  0
M  END