8
 OpenBabel11300911503D

 13 13  0  0  0  0  0  0  0  0999 V2000
    0.9470    0.0067   -0.0032 O   0  0  0  0  0
    2.3199    0.0276   -0.0006 C   0  0  0  0  0
    3.0393   -1.1708    0.0007 C   0  0  0  0  0
    4.4299   -1.1549    0.0033 C   0  0  0  0  0
    5.1099    0.0669    0.0045 C   0  0  0  0  0
    4.4021    1.2814    0.0032 C   0  0  0  0  0
    5.2614    2.7908    0.0048 Cl  0  0  0  0  0
    6.8393   -0.0015    0.0078 Cl  0  0  0  0  0
    2.2157   -2.6859   -0.0009 Cl  0  0  0  0  0
    2.9959    1.2562    0.0006 C   0  0  0  0  0
    2.0682    2.7246   -0.0011 Cl  0  0  0  0  0
    0.6505   -0.9228   -0.0037 H   0  0  0  0  0
    4.9862   -2.0900    0.0043 H   0  0  0  0  0
  1  2  1  0  0  0
  1 12  1  0  0  0
  2  3  2  0  0  0
  2 10  1  0  0  0
  3  4  1  0  0  0
  3  9  1  0  0  0
  4  5  2  0  0  0
  4 13  1  0  0  0
  5  6  1  0  0  0
  5  8  1  0  0  0
  6 10  2  0  0  0
  6  7  1  0  0  0
 10 11  1  0  0  0
M  END