9
 OpenBabel11300911503D

 16 16  0  0  0  0  0  0  0  0999 V2000
    1.0000   -0.0643    0.1387 O   0  0  0  0  0
    2.3557   -0.0249   -0.0009 C   0  0  0  0  0
    3.0452    1.1810   -0.0326 C   0  0  0  0  0
    4.4322    1.1677   -0.1841 C   0  0  0  0  0
    5.1178   -0.0464   -0.3021 C   0  0  0  0  0
    4.4242   -1.2664   -0.2648 C   0  0  0  0  0
    5.1265   -2.5877   -0.3985 C   0  0  0  0  0
    6.8335    0.0121   -0.4973 Cl  0  0  0  0  0
    3.0288   -1.2384   -0.1138 C   0  0  0  0  0
    0.6631    0.8458    0.1829 H   0  0  0  0  0
    2.5280    2.1309    0.0565 H   0  0  0  0  0
    4.9769    2.1082   -0.2119 H   0  0  0  0  0
    4.4308   -3.4251   -0.2787 H   0  0  0  0  0
    5.8968   -2.6939    0.3720 H   0  0  0  0  0
    5.5832   -2.6756   -1.3894 H   0  0  0  0  0
    2.4561   -2.1627   -0.0854 H   0  0  0  0  0
  1  2  1  0  0  0
  1 10  1  0  0  0
  2  3  2  0  0  0
  2  9  1  0  0  0
  3  4  1  0  0  0
  3 11  1  0  0  0
  4  5  2  0  0  0
  4 12  1  0  0  0
  5  6  1  0  0  0
  5  8  1  0  0  0
  6  9  2  0  0  0
  6  7  1  0  0  0
  7 13  1  0  0  0
  7 14  1  0  0  0
  7 15  1  0  0  0
  9 16  1  0  0  0
M  END