13
 OpenBabel11300911503D

 26 27  0  0  0  0  0  0  0  0999 V2000
    2.7270    0.9167   -0.4453 O   0  0  0  0  0
    2.3426   -0.2214   -0.2112 C   0  0  0  0  0
    3.1450   -1.3304    0.0183 O   0  0  0  0  0
    4.5551   -1.2450   -0.0931 C   0  0  0  0  0
    5.3307   -1.9571    0.8514 C   0  0  0  0  0
    6.7376   -1.9583    0.6960 C   0  0  0  0  0
    7.5368   -2.6637    1.6110 C   0  0  0  0  0
    6.9635   -3.3639    2.6726 C   0  0  0  0  0
    5.5831   -3.3653    2.8366 C   0  0  0  0  0
    7.3186   -1.2611   -0.3766 C   0  0  0  0  0
    6.5290   -0.5765   -1.3015 C   0  0  0  0  0
    4.7743   -2.6693    1.9361 C   0  0  0  0  0
    5.1443   -0.5771   -1.1696 C   0  0  0  0  0
    1.0307   -0.6030   -0.1584 N   0  0  0  0  0
   -0.0328    0.2922   -0.5208 C   0  0  0  0  0
    8.6190   -2.6757    1.4996 H   0  0  0  0  0
    7.5963   -3.9065    3.3701 H   0  0  0  0  0
    5.1333   -3.9071    3.6645 H   0  0  0  0  0
    8.3991   -1.2523   -0.5046 H   0  0  0  0  0
    6.9948   -0.0483   -2.1294 H   0  0  0  0  0
    3.6974   -2.6829    2.0872 H   0  0  0  0  0
    4.5395   -0.0584   -1.9075 H   0  0  0  0  0
    0.8570   -1.5939   -0.0670 H   0  0  0  0  0
    0.0782    1.2382    0.0153 H   0  0  0  0  0
   -0.9865   -0.1750   -0.2655 H   0  0  0  0  0
    0.0135    0.4781   -1.5972 H   0  0  0  0  0
  1  2  2  0  0  0
  2 14  1  0  0  0
  2  3  1  0  0  0
  3  4  1  0  0  0
  4 13  1  0  0  0
  4  5  2  0  0  0
  5  6  1  0  0  0
  5 12  1  0  0  0
  6  7  1  0  0  0
  6 10  2  0  0  0
  7  8  2  0  0  0
  7 16  1  0  0  0
  8  9  1  0  0  0
  8 17  1  0  0  0
  9 12  2  0  0  0
  9 18  1  0  0  0
 10 11  1  0  0  0
 10 19  1  0  0  0
 11 13  2  0  0  0
 11 20  1  0  0  0
 12 21  1  0  0  0
 13 22  1  0  0  0
 14 15  1  0  0  0
 14 23  1  0  0  0
 15 24  1  0  0  0
 15 25  1  0  0  0
 15 26  1  0  0  0
M  END