15
 OpenBabel11300911513D

 59 60  0  0  0  0  0  0  0  0999 V2000
    1.0000    0.0000    0.0000 C   0  0  0  0  0
    2.4700    0.0000    0.0000 N   0  0  0  0  0
    3.0299    1.1537    0.8679 C   0  0  0  0  0
    4.4604    0.6582    1.2094 C   0  0  0  0  0
    4.2935   -0.8601    1.4286 C   0  0  0  0  0
    3.0278   -1.2782    0.6595 C   0  0  0  0  0
    3.3485   -2.3008   -0.3641 C   0  0  0  0  0
    3.9505   -3.6589    0.8543 C   0  0  0  0  0
    5.1078   -4.3725    1.1349 N   0  0  0  0  0
    6.2313   -4.0127    0.4580 C   0  0  0  0  0
    6.3596   -3.0008   -0.4926 C   0  0  0  0  0
    5.2005   -2.2452   -0.8774 C   0  0  0  0  0
    1.0000    0.0000    0.0000 C   0  0  0  0  0
    2.4700    0.0000    0.0000 N   0  0  0  0  0
    3.0299    1.1537    0.8679 C   0  0  0  0  0
    4.4604    0.6582    1.2094 C   0  0  0  0  0
    4.2935   -0.8601    1.4286 C   0  0  0  0  0
    3.0278   -1.2782    0.6595 C   0  0  0  0  0
    3.3485   -2.3008   -0.3641 C   0  0  0  0  0
    3.4724   -2.4081   -2.2524 C   0  0  0  0  0
    3.5844   -3.4800   -3.1191 N   0  0  0  0  0
    3.2406   -4.6827   -2.6214 C   0  0  0  0  0
    2.4375   -4.8835   -1.4913 C   0  0  0  0  0
    2.2194   -3.8154   -0.5501 C   0  0  0  0  0
    1.0000    0.0000    0.0000 O   0  0  0  0  0
    3.5232    0.6955   -0.7247 S   0  0  0  0  0
    2.9054   -0.0533    1.4843 O   0  0  0  0  0
    4.0318    0.0026   -1.8956 O   0  0  0  0  0
    3.0045    2.1684   -1.5016 O   0  0  0  0  0
    0.6428   -0.8060   -0.6064 H   0  0  0  0  0
    0.6296    0.9335   -0.3690 H   0  0  0  0  0
    0.6483   -0.1310    1.0020 H   0  0  0  0  0
    2.4441    1.2999    1.7513 H   0  0  0  0  0
    3.0169    2.1018    0.3721 H   0  0  0  0  0
    5.1416    0.8613    0.4097 H   0  0  0  0  0
    4.8689    1.1514    2.0666 H   0  0  0  0  0
    5.1493   -1.3919    1.0687 H   0  0  0  0  0
    4.2023   -1.0891    2.4698 H   0  0  0  0  0
    2.3065   -1.7150    1.3182 H   0  0  0  0  0
    3.2180   -3.8450    1.6684 H   0  0  0  0  0
    7.1287   -4.5338    0.7928 H   0  0  0  0  0
    7.3466   -2.6812   -0.8175 H   0  0  0  0  0
    5.5154   -1.3196   -1.3820 H   0  0  0  0  0
    0.6428   -0.8060   -0.6064 H   0  0  0  0  0
    0.6296    0.9335   -0.3690 H   0  0  0  0  0
    0.6483   -0.1310    1.0020 H   0  0  0  0  0
    2.4441    1.2999    1.7513 H   0  0  0  0  0
    3.0169    2.1018    0.3721 H   0  0  0  0  0
    5.1416    0.8613    0.4097 H   0  0  0  0  0
    4.8689    1.1514    2.0666 H   0  0  0  0  0
    5.1493   -1.3919    1.0687 H   0  0  0  0  0
    4.2023   -1.0891    2.4698 H   0  0  0  0  0
    2.3065   -1.7150    1.3182 H   0  0  0  0  0
    3.7483   -1.5565   -2.8601 H   0  0  0  0  0
    3.5955   -5.5235   -3.2222 H   0  0  0  0  0
    2.0919   -5.8926   -1.2900 H   0  0  0  0  0
    1.5314   -3.9958    0.2839 H   0  0  0  0  0
    1.5981   -0.0144   -1.3830 H   0  0  0  0  0
    3.1940    2.0327   -2.4551 H   0  0  0  0  0
  1  2  1  0  0  0
  1 30  1  0  0  0
  1 31  1  0  0  0
  1 32  1  0  0  0
  2  6  1  0  0  0
  2  3  1  0  0  0
  3  4  1  0  0  0
  3 33  1  0  0  0
  3 34  1  0  0  0
  4  5  1  0  0  0
  4 35  1  0  0  0
  4 36  1  0  0  0
  5  6  1  0  0  0
  5 37  1  0  0  0
  5 38  1  0  0  0
  6  7  1  0  0  0
  6 39  1  0  0  0
  7  8  2  0  0  0
  7 12  1  0  0  0
  8  9  1  0  0  0
  8 40  1  0  0  0
  9 10  2  0  0  0
 10 11  1  0  0  0
 10 41  1  0  0  0
 11 12  2  0  0  0
 11 42  1  0  0  0
 12 43  1  0  0  0
 13 14  1  0  0  0
 13 44  1  0  0  0
 13 45  1  0  0  0
 13 46  1  0  0  0
 14 18  1  0  0  0
 14 15  1  0  0  0
 15 16  1  0  0  0
 15 47  1  0  0  0
 15 48  1  0  0  0
 16 17  1  0  0  0
 16 49  1  0  0  0
 16 50  1  0  0  0
 17 18  1  0  0  0
 17 51  1  0  0  0
 17 52  1  0  0  0
 18 19  1  0  0  0
 18 53  1  0  0  0
 19 20  2  0  0  0
 19 24  1  0  0  0
 20 21  1  0  0  0
 20 54  1  0  0  0
 21 22  2  0  0  0
 22 23  1  0  0  0
 22 55  1  0  0  0
 23 24  2  0  0  0
 23 56  1  0  0  0
 24 57  1  0  0  0
 25 26  1  0  0  0
 25 58  1  0  0  0
 26 29  1  0  0  0
 26 28  2  0  0  0
 26 27  2  0  0  0
 29 59  1  0  0  0
M  END