17
 OpenBabel11300911163D

 19 18  0  0  0  0  0  0  0  0999 V2000
    5.2635   -1.9224   -0.6312 O   0  0  0  0  0
    4.2256   -1.3662   -0.2896 C   0  0  0  0  0
    4.0998    0.1058    0.0219 C   0  0  0  0  0
    5.4180    0.8555   -0.1441 C   0  0  0  0  0
    5.2554    2.3426    0.1720 C   0  0  0  0  0
    6.5757    3.0943    0.0045 C   0  0  0  0  0
    6.4158    4.5752    0.3095 C   0  0  0  0  0
    3.2904   -1.9437   -0.1879 H   0  0  0  0  0
    3.7358    0.1946    1.0512 H   0  0  0  0  0
    3.3377    0.5195   -0.6472 H   0  0  0  0  0
    5.7848    0.7336   -1.1710 H   0  0  0  0  0
    6.1774    0.4175    0.5155 H   0  0  0  0  0
    4.8928    2.4620    1.2001 H   0  0  0  0  0
    4.4978    2.7783   -0.4906 H   0  0  0  0  0
    6.9446    2.9766   -1.0210 H   0  0  0  0  0
    7.3334    2.6693    0.6729 H   0  0  0  0  0
    5.6948    5.0400   -0.3708 H   0  0  0  0  0
    7.3738    5.0918    0.1934 H   0  0  0  0  0
    6.0687    4.7296    1.3363 H   0  0  0  0  0
  1  2  2  0  0  0
  2  3  1  0  0  0
  2  8  1  0  0  0
  3  4  1  0  0  0
  3  9  1  0  0  0
  3 10  1  0  0  0
  4  5  1  0  0  0
  4 11  1  0  0  0
  4 12  1  0  0  0
  5  6  1  0  0  0
  5 13  1  0  0  0
  5 14  1  0  0  0
  6  7  1  0  0  0
  6 15  1  0  0  0
  6 16  1  0  0  0
  7 17  1  0  0  0
  7 18  1  0  0  0
  7 19  1  0  0  0
M  END