21
 OpenBabel11300911163D

 10  9  0  0  0  0  0  0  0  0999 V2000
    0.9580   -0.0001    0.0001 O   0  0  0  0  0
    2.1892   -0.0001   -0.0000 C   0  0  0  0  0
    2.9781   -1.2810   -0.0055 C   0  0  0  0  0
    2.9777    1.2809    0.0052 C   0  0  0  0  0
    2.2954   -2.1352    0.0006 H   0  0  0  0  0
    3.6087   -1.3267    0.8858 H   0  0  0  0  0
    3.5945   -1.3274   -0.9067 H   0  0  0  0  0
    2.2949    2.1352   -0.0007 H   0  0  0  0  0
    3.6082    1.3268   -0.8862 H   0  0  0  0  0
    3.5943    1.3276    0.9062 H   0  0  0  0  0
  1  2  2  0  0  0
  2  4  1  0  0  0
  2  3  1  0  0  0
  3  5  1  0  0  0
  3  6  1  0  0  0
  3  7  1  0  0  0
  4  8  1  0  0  0
  4  9  1  0  0  0
  4 10  1  0  0  0
M  END