23
 OpenBabel11300911513D

 10  9  0  0  0  0  0  0  0  0999 V2000
    0.9752    0.0065   -0.0256 O   0  0  0  0  0
    2.4621   -0.0838    0.1511 S   0  0  0  0  0
    3.1521   -0.7611   -1.3783 C   0  0  0  0  0
    3.1379    1.5803   -0.0667 C   0  0  0  0  0
    2.8283   -1.8004   -1.4754 H   0  0  0  0  0
    4.2421   -0.7247   -1.3340 H   0  0  0  0  0
    2.7913   -0.1881   -2.2359 H   0  0  0  0  0
    2.8022    2.2038    0.7653 H   0  0  0  0  0
    2.7812    2.0079   -1.0068 H   0  0  0  0  0
    4.2292    1.5335   -0.0658 H   0  0  0  0  0
  1  2  2  0  0  0
  2  4  1  0  0  0
  2  3  1  0  0  0
  3  5  1  0  0  0
  3  6  1  0  0  0
  3  7  1  0  0  0
  4  8  1  0  0  0
  4  9  1  0  0  0
  4 10  1  0  0  0
M  END