26
 OpenBabel11300911513D

 22 22  0  0  0  0  0  0  0  0999 V2000
    1.3804   -0.7253    0.0252 O   0  0  0  0  0
    2.5994   -0.7336    0.1865 C   0  0  0  0  0
    3.3494   -2.0073   -0.0176 C   0  0  0  0  0
    4.7285   -2.0338   -0.2404 C   0  0  0  0  0
    5.3888   -3.2586   -0.3981 C   0  0  0  0  0
    4.6808   -4.4637   -0.3796 C   0  0  0  0  0
    5.3669   -5.6827   -0.3961 N   0  0  0  0  0
    3.3121   -4.4314   -0.1092 C   0  0  0  0  0
    2.6422   -3.2136    0.0439 C   0  0  0  0  0
    3.3780    0.5069    0.5854 C   0  0  0  0  0
    2.4780    1.5615    1.2085 C   0  0  0  0  0
    5.3147   -1.1211   -0.2908 H   0  0  0  0  0
    6.4670   -3.2632   -0.5355 H   0  0  0  0  0
    4.7937   -6.4722   -0.6779 H   0  0  0  0  0
    6.2492   -5.6538   -0.8970 H   0  0  0  0  0
    2.7489   -5.3564   -0.0135 H   0  0  0  0  0
    1.5712   -3.2129    0.2352 H   0  0  0  0  0
    3.8627    0.9172   -0.3057 H   0  0  0  0  0
    4.1436    0.2346    1.3189 H   0  0  0  0  0
    1.7215    1.9084    0.4960 H   0  0  0  0  0
    3.0679    2.4270    1.5277 H   0  0  0  0  0
    1.9543    1.1618    2.0845 H   0  0  0  0  0
  1  2  2  0  0  0
  2 10  1  0  0  0
  2  3  1  0  0  0
  3  4  2  0  0  0
  3  9  1  0  0  0
  4  5  1  0  0  0
  4 12  1  0  0  0
  5  6  2  0  0  0
  5 13  1  0  0  0
  6  8  1  0  0  0
  6  7  1  0  0  0
  7 14  1  0  0  0
  7 15  1  0  0  0
  8  9  2  0  0  0
  8 16  1  0  0  0
  9 17  1  0  0  0
 10 11  1  0  0  0
 10 18  1  0  0  0
 10 19  1  0  0  0
 11 20  1  0  0  0
 11 21  1  0  0  0
 11 22  1  0  0  0
M  END