29
 OpenBabel11300911513D

 18 17  0  0  0  0  0  0  0  0999 V2000
    1.0022    0.2609   -0.5881 O   0  0  0  0  0
    2.4098    0.3138   -0.4020 C   0  0  0  0  0
    2.8213    1.7612   -0.1731 C   0  0  0  0  0
    4.3277    1.8918    0.0422 C   0  0  0  0  0
    4.7358    3.3501    0.2492 C   0  0  0  0  0
    6.2327    3.4822    0.4789 C   0  0  0  0  0
    0.7687   -0.6722   -0.7327 H   0  0  0  0  0
    2.8945   -0.0931   -1.2952 H   0  0  0  0  0
    2.6710   -0.3081    0.4600 H   0  0  0  0  0
    2.2787    2.1610    0.6926 H   0  0  0  0  0
    2.5059    2.3681   -1.0308 H   0  0  0  0  0
    4.8602    1.4812   -0.8246 H   0  0  0  0  0
    4.6263    1.2982    0.9152 H   0  0  0  0  0
    4.2016    3.7685    1.1098 H   0  0  0  0  0
    4.4530    3.9429   -0.6282 H   0  0  0  0  0
    6.5417    2.9348    1.3754 H   0  0  0  0  0
    6.5043    4.5340    0.6131 H   0  0  0  0  0
    6.7973    3.0916   -0.3740 H   0  0  0  0  0
  1  2  1  0  0  0
  1  7  1  0  0  0
  2  3  1  0  0  0
  2  8  1  0  0  0
  2  9  1  0  0  0
  3  4  1  0  0  0
  3 10  1  0  0  0
  3 11  1  0  0  0
  4  5  1  0  0  0
  4 12  1  0  0  0
  4 13  1  0  0  0
  5  6  1  0  0  0
  5 14  1  0  0  0
  5 15  1  0  0  0
  6 16  1  0  0  0
  6 17  1  0  0  0
  6 18  1  0  0  0
M  END