31
 OpenBabel11300911513D

  8  7  0  0  0  0  0  0  0  0999 V2000
    0.9845   -0.0050   -0.0097 C   0  0  0  0  0
    0.3895   -0.8331   -1.4750 Cl  0  0  0  0  0
    0.3714   -0.8549    1.4355 Cl  0  0  0  0  0
    0.3850    1.6766   -0.0008 Cl  0  0  0  0  0
    2.5075   -0.0078   -0.0003 C   0  0  0  0  0
    2.9038    0.4951    0.8897 H   0  0  0  0  0
    2.9148    0.5083   -0.8776 H   0  0  0  0  0
    2.9065   -1.0289   -0.0054 H   0  0  0  0  0
  1  5  1  0  0  0
  1  4  1  0  0  0
  1  3  1  0  0  0
  1  2  1  0  0  0
  5  6  1  0  0  0
  5  7  1  0  0  0
  5  8  1  0  0  0
M  END