35
 OpenBabel11300911173D

 15 14  0  0  0  0  0  0  0  0999 V2000
    1.0241   -0.0181    0.0053 O   0  0  0  0  0
    2.4521   -0.0060    0.0062 C   0  0  0  0  0
    2.9173   -0.7185    1.2742 C   0  0  0  0  0
    2.9455   -0.7444   -1.2370 C   0  0  0  0  0
    2.9261    1.4466    0.0014 C   0  0  0  0  0
    0.7207    0.4350   -0.7999 H   0  0  0  0  0
    2.5268   -0.2188    2.1684 H   0  0  0  0  0
    4.0097   -0.7491    1.3434 H   0  0  0  0  0
    2.5387   -1.7468    1.3054 H   0  0  0  0  0
    2.5807   -0.2604   -2.1501 H   0  0  0  0  0
    2.5631   -1.7714   -1.2576 H   0  0  0  0  0
    4.0391   -0.7798   -1.2779 H   0  0  0  0  0
    2.5624    1.9738   -0.8881 H   0  0  0  0  0
    4.0187    1.5147    0.0208 H   0  0  0  0  0
    2.5281    1.9893    0.8665 H   0  0  0  0  0
  1  2  1  0  0  0
  1  6  1  0  0  0
  2  5  1  0  0  0
  2  4  1  0  0  0
  2  3  1  0  0  0
  3  7  1  0  0  0
  3  8  1  0  0  0
  3  9  1  0  0  0
  4 10  1  0  0  0
  4 11  1  0  0  0
  4 12  1  0  0  0
  5 13  1  0  0  0
  5 14  1  0  0  0
  5 15  1  0  0  0
M  END