38
 OpenBabel11300911513D

  8  7  0  0  0  0  0  0  0  0999 V2000
    0.9953   -0.0085    0.0270 C   0  0  0  0  0
    0.4895   -0.7007   -1.2635 C   0  0  0  0  0
    1.0696   -2.3947   -1.4440 Cl  0  0  0  0  0
   -1.3042   -0.7301   -1.4065 Cl  0  0  0  0  0
    0.4426   -0.8305    1.5281 Cl  0  0  0  0  0
    0.4358    1.7083    0.0956 Cl  0  0  0  0  0
    2.8011    0.0496    0.0582 Cl  0  0  0  0  0
    0.8522   -0.1637   -2.1456 H   0  0  0  0  0
  1  7  1  0  0  0
  1  6  1  0  0  0
  1  5  1  0  0  0
  1  2  1  0  0  0
  2  4  1  0  0  0
  2  3  1  0  0  0
  2  8  1  0  0  0
M  END