39
 OpenBabel11300911513D

 21 20  0  0  0  0  0  0  0  0999 V2000
    1.3085   -0.2807    0.1500 O   0  0  0  0  0
    2.6990    0.0167   -0.0410 C   0  0  0  0  0
    3.4613   -0.5488    1.1750 C   0  0  0  0  0
    3.3566   -2.0612    1.3404 C   0  0  0  0  0
    3.1198   -0.6006   -1.3916 C   0  0  0  0  0
    4.5875   -0.4348   -1.7573 C   0  0  0  0  0
    2.8332    1.5448   -0.0592 C   0  0  0  0  0
    0.8135    0.1036   -0.5936 H   0  0  0  0  0
    3.0544   -0.0969    2.0894 H   0  0  0  0  0
    4.5198   -0.2671    1.1300 H   0  0  0  0  0
    2.3135   -2.3864    1.3995 H   0  0  0  0  0
    3.8559   -2.3699    2.2648 H   0  0  0  0  0
    3.8399   -2.5900    0.5138 H   0  0  0  0  0
    2.5089   -0.1613   -2.1919 H   0  0  0  0  0
    2.8636   -1.6675   -1.4066 H   0  0  0  0  0
    4.8653    0.6200   -1.8368 H   0  0  0  0  0
    4.7828   -0.9009   -2.7288 H   0  0  0  0  0
    5.2428   -0.9137   -1.0247 H   0  0  0  0  0
    2.2918    1.9752   -0.9095 H   0  0  0  0  0
    3.8779    1.8660   -0.1150 H   0  0  0  0  0
    2.3883    1.9838    0.8415 H   0  0  0  0  0
  1  2  1  0  0  0
  1  8  1  0  0  0
  2  7  1  0  0  0
  2  5  1  0  0  0
  2  3  1  0  0  0
  3  4  1  0  0  0
  3  9  1  0  0  0
  3 10  1  0  0  0
  4 11  1  0  0  0
  4 12  1  0  0  0
  4 13  1  0  0  0
  5  6  1  0  0  0
  5 14  1  0  0  0
  5 15  1  0  0  0
  6 16  1  0  0  0
  6 17  1  0  0  0
  6 18  1  0  0  0
  7 19  1  0  0  0
  7 20  1  0  0  0
  7 21  1  0  0  0
M  END