40
 OpenBabel11300911173D

 17 16  0  0  0  0  0  0  0  0999 V2000
    0.9886   -0.0202    0.0327 O   0  0  0  0  0
    2.4200    0.0000    0.0000 C   0  0  0  0  0
    2.8947   -0.6716    1.1869 C   0  0  0  0  0
    3.2859   -1.2252    2.1651 C   0  0  0  0  0
    2.8576   -0.7402   -1.2809 C   0  0  0  0  0
    4.3584   -0.7640   -1.5417 C   0  0  0  0  0
    2.8578    1.4671    0.0034 C   0  0  0  0  0
    0.6698    0.4608   -0.7475 H   0  0  0  0  0
    3.6249   -1.7229    3.0439 H   0  0  0  0  0
    2.3602   -0.2879   -2.1489 H   0  0  0  0  0
    2.4892   -1.7744   -1.2470 H   0  0  0  0  0
    4.7544    0.2441   -1.6966 H   0  0  0  0  0
    4.5686   -1.3422   -2.4474 H   0  0  0  0  0
    4.9050   -1.2297   -0.7162 H   0  0  0  0  0
    2.5147    1.9795   -0.9026 H   0  0  0  0  0
    3.9449    1.5775    0.0748 H   0  0  0  0  0
    2.4126    2.0050    0.8497 H   0  0  0  0  0
  1  2  1  0  0  0
  1  8  1  0  0  0
  2  7  1  0  0  0
  2  5  1  0  0  0
  2  3  1  0  0  0
  3  4  3  0  0  0
  4  9  1  0  0  0
  5  6  1  0  0  0
  5 10  1  0  0  0
  5 11  1  0  0  0
  6 12  1  0  0  0
  6 13  1  0  0  0
  6 14  1  0  0  0
  7 15  1  0  0  0
  7 16  1  0  0  0
  7 17  1  0  0  0
M  END