47
 OpenBabel11300911513D

  8  7  0  0  0  0  0  0  0  0999 V2000
    1.0023   -0.1700   -0.1746 Cl  0  0  0  0  0
    2.7681    0.0090    0.0270 C   0  0  0  0  0
    3.1972    1.4724    0.0581 C   0  0  0  0  0
    2.6005    2.3109    1.5163 Cl  0  0  0  0  0
    4.9815    1.5784    0.0279 Cl  0  0  0  0  0
    3.2276   -0.5122   -0.8192 H   0  0  0  0  0
    3.0516   -0.5184    0.9439 H   0  0  0  0  0
    2.8260    2.0153   -0.8162 H   0  0  0  0  0
  1  2  1  0  0  0
  2  3  1  0  0  0
  2  6  1  0  0  0
  2  7  1  0  0  0
  3  5  1  0  0  0
  3  4  1  0  0  0
  3  8  1  0  0  0
M  END