54
 OpenBabel11300911513D

 22 24  0  0  0  0  0  0  0  0999 V2000
   -0.0143    0.1136    0.0019 C   0  0  0  0  0
    0.1051   -1.2526   -0.0007 C   0  0  0  0  0
    1.4151   -1.7654   -0.0023 C   0  0  0  0  0
    2.5196   -0.8888   -0.0012 C   0  0  0  0  0
    2.3626    0.5090    0.0014 C   0  0  0  0  0
   -1.0956   -1.9855   -0.0014 C   0  0  0  0  0
   -2.3360   -1.3146    0.0006 C   0  0  0  0  0
   -2.4241    0.0900    0.0034 C   0  0  0  0  0
    1.0564    0.9825    0.0028 C   0  0  0  0  0
    0.5715    2.3904    0.0053 C   0  0  0  0  0
   -0.9882    2.2535    0.0071 C   0  0  0  0  0
   -1.2212    0.7827    0.0040 C   0  0  0  0  0
    1.5831   -2.8389   -0.0042 H   0  0  0  0  0
    3.5250   -1.3060   -0.0024 H   0  0  0  0  0
    3.2099    1.1834    0.0021 H   0  0  0  0  0
   -1.0742   -3.0719   -0.0035 H   0  0  0  0  0
   -3.2533   -1.9004   -0.0000 H   0  0  0  0  0
   -3.3770    0.6062    0.0050 H   0  0  0  0  0
    0.9176    2.9195   -0.8884 H   0  0  0  0  0
    0.9201    2.9175    0.8991 H   0  0  0  0  0
   -1.4233    2.7156   -0.8848 H   0  0  0  0  0
   -1.4206    2.7111    0.9027 H   0  0  0  0  0
  1  9  1  0  0  0
  1 12  1  0  0  0
  1  2  2  0  0  0
  2  6  1  0  0  0
  2  3  1  0  0  0
  3  4  2  0  0  0
  3 13  1  0  0  0
  4  5  1  0  0  0
  4 14  1  0  0  0
  5  9  2  0  0  0
  5 15  1  0  0  0
  6  7  2  0  0  0
  6 16  1  0  0  0
  7  8  1  0  0  0
  7 17  1  0  0  0
  8 12  2  0  0  0
  8 18  1  0  0  0
  9 10  1  0  0  0
 10 11  1  0  0  0
 10 19  1  0  0  0
 10 20  1  0  0  0
 11 12  1  0  0  0
 11 21  1  0  0  0
 11 22  1  0  0  0
M  END