55
 OpenBabel11300911173D

 19 20  0  0  0  0  0  0  0  0999 V2000
    2.1275    0.7277   -0.0014 C   0  0  0  0  0
    2.1552   -0.6642    0.0007 C   0  0  0  0  0
    0.9651   -1.4012    0.0025 C   0  0  0  0  0
   -0.2737   -0.7259    0.0020 C   0  0  0  0  0
   -1.6424   -1.1480    0.0033 C   0  0  0  0  0
   -2.1573   -2.5417    0.0062 C   0  0  0  0  0
   -2.4136   -0.0015    0.0020 C   0  0  0  0  0
   -1.5773    1.0812   -0.0002 N   0  0  0  0  0
   -0.2661    0.6701   -0.0002 C   0  0  0  0  0
    0.9145    1.4230   -0.0019 C   0  0  0  0  0
    3.0623    1.2837   -0.0027 H   0  0  0  0  0
    3.1084   -1.1860    0.0011 H   0  0  0  0  0
    1.0004   -2.4863    0.0042 H   0  0  0  0  0
   -1.3460   -3.2753   -0.0073 H   0  0  0  0  0
   -2.7846   -2.7173   -0.8738 H   0  0  0  0  0
   -2.7604   -2.7223    0.9016 H   0  0  0  0  0
   -3.4875    0.1322    0.0025 H   0  0  0  0  0
   -1.8741    2.0467   -0.0014 H   0  0  0  0  0
    0.8961    2.5078   -0.0034 H   0  0  0  0  0
  1  2  2  0  0  0
  1 10  1  0  0  0
  1 11  1  0  0  0
  2  3  1  0  0  0
  2 12  1  0  0  0
  3  4  2  0  0  0
  3 13  1  0  0  0
  4  5  1  0  0  0
  4  9  1  0  0  0
  5  7  2  0  0  0
  5  6  1  0  0  0
  6 14  1  0  0  0
  6 15  1  0  0  0
  6 16  1  0  0  0
  7  8  1  0  0  0
  7 17  1  0  0  0
  8  9  1  0  0  0
  8 18  1  0  0  0
  9 10  2  0  0  0
 10 19  1  0  0  0
M  END