56
                    3D
 Structure written by MMmdl.
 51 55  0  0  1  0            999 V2000
   -6.0226    0.5452    3.9209 C   0  0  0  0  0  0
   -4.9264   -0.3555    3.8469 O   0  0  0  0  0  0
   -3.7891    0.0443    3.1756 C   0  0  0  0  0  0
   -2.5788   -0.4608    3.6867 C   0  0  0  0  0  0
   -1.3456   -0.1182    3.1099 C   0  0  0  0  0  0
   -1.3014    0.7578    2.0113 C   0  0  0  0  0  0
    0.0915    1.1976    1.5624 C   0  0  1  0  0  0
    1.1183    0.0438    1.6062 C   0  0  1  0  0  0
    0.8178   -0.9848    2.7235 C   0  0  0  0  0  0
   -0.1840   -0.5977    3.6605 O   0  0  0  0  0  0
    0.4861   -1.9281    2.2854 H   0  0  0  0  0  0
    1.7320   -1.2215    3.2688 H   0  0  0  0  0  0
    1.1316   -0.7118    0.3969 O   0  0  0  0  0  0
    1.3034    0.0158   -0.7537 C   0  0  0  0  0  0
    0.8656    1.3575   -0.8779 C   0  0  0  0  0  0
    1.0629    2.0604   -2.0966 C   0  0  0  0  0  0
    1.7101    1.4422   -3.1908 C   0  0  0  0  0  0
    2.1476    0.1162   -3.0433 C   0  0  0  0  0  0
    1.9297   -0.5738   -1.8638 C   0  0  0  0  0  0
    2.4873   -1.9486   -1.9932 C   0  0  0  0  0  0
    3.2566   -1.8422   -3.3408 C   0  0  1  0  0  0
    2.8154   -0.6278   -3.9743 O   0  0  0  0  0  0
    4.7812   -1.8315   -3.2203 C   0  0  0  0  0  0
    5.4514   -1.4208   -2.1276 C   0  0  0  0  0  0
    4.9470   -1.0493   -1.2485 H   0  0  0  0  0  0
    6.5309   -1.4387   -2.0962 H   0  0  0  0  0  0
    5.5207   -2.3228   -4.4500 C   0  0  0  0  0  0
    5.2602   -3.3597   -4.6650 H   0  0  0  0  0  0
    6.6023   -2.2641   -4.3213 H   0  0  0  0  0  0
    5.2501   -1.7146   -5.3140 H   0  0  0  0  0  0
    2.9767   -2.6918   -3.9649 H   0  0  0  0  0  0
    3.0916   -2.2463   -1.1370 H   0  0  0  0  0  0
    1.6569   -2.6501   -2.0773 H   0  0  0  0  0  0
    1.8753    1.9768   -4.1150 H   0  0  0  0  0  0
    0.7237    3.0830   -2.1917 H   0  0  0  0  0  0
    0.1949    2.0149    0.2675 C   0  0  0  0  0  0
   -0.2523    3.1633    0.2264 O   0  0  0  0  0  0
    2.1164    0.4604    1.7544 H   0  0  0  0  0  0
   -2.5119    1.2469    1.4668 C   0  0  0  0  0  0
   -3.7666    0.8927    2.0306 C   0  0  0  0  0  0
   -4.9630    1.3358    1.5031 O   0  0  0  0  0  0
   -4.9474    2.2174    0.3893 C   0  0  0  0  0  0
   -5.9729    2.4767    0.1260 H   0  0  0  0  0  0
   -4.4922    1.7499   -0.4850 H   0  0  0  0  0  0
   -4.4239    3.1464    0.6204 H   0  0  0  0  0  0
   -2.4706    1.9177    0.6250 H   0  0  0  0  0  0
   -2.5978   -1.1126    4.5474 H   0  0  0  0  0  0
   -6.6216    0.3090    4.8006 H   0  0  0  0  0  0
   -6.6735    0.4481    3.0518 H   0  0  0  0  0  0
   -5.6978    1.5825    4.0178 H   0  0  0  0  0  0
    0.3943    1.8952    2.3430 H   0  0  0  0  0  0
  1  2  1  0  0  0
  1 48  1  0  0  0
  1 49  1  0  0  0
  1 50  1  0  0  0
  2  3  1  0  0  0
  3  4  2  0  0  0
  3 40  1  0  0  0
  4  5  1  0  0  0
  4 47  1  0  0  0
  5  6  2  0  0  0
  5 10  1  0  0  0
  6  7  1  0  0  0
  6 39  1  0  0  0
  7  8  1  0  0  0
  7 36  1  0  0  0
  7 51  1  0  0  0
  8  9  1  0  0  0
  8 13  1  0  0  0
  8 38  1  0  0  0
  9 10  1  0  0  0
  9 11  1  0  0  0
  9 12  1  0  0  0
 13 14  1  0  0  0
 14 15  1  0  0  0
 14 19  2  0  0  0
 15 16  2  0  0  0
 15 36  1  0  0  0
 16 17  1  0  0  0
 16 35  1  0  0  0
 17 18  2  0  0  0
 17 34  1  0  0  0
 18 19  1  0  0  0
 18 22  1  0  0  0
 19 20  1  0  0  0
 20 21  1  0  0  0
 20 32  1  0  0  0
 20 33  1  0  0  0
 21 22  1  0  0  0
 21 23  1  0  0  0
 21 31  1  0  0  0
 23 24  2  0  0  0
 23 27  1  0  0  0
 24 25  1  0  0  0
 24 26  1  0  0  0
 27 28  1  0  0  0
 27 29  1  0  0  0
 27 30  1  0  0  0
 36 37  2  0  0  0
 39 40  2  0  0  0
 39 46  1  0  0  0
 40 41  1  0  0  0
 41 42  1  0  0  0
 42 43  1  0  0  0
 42 44  1  0  0  0
 42 45  1  0  0  0
M  END