57
 OpenBabel11300911173D

 30 30  0  0  0  0  0  0  0  0999 V2000
    3.1293   -0.6943    0.0901 O   0  0  0  0  0
    2.5005    0.3381   -0.0657 C   0  0  0  0  0
    1.2174    0.4551   -0.4832 O   0  0  0  0  0
    0.5802   -0.7595   -0.9017 C   0  0  0  0  0
    0.7659   -0.9024   -2.4011 C   0  0  0  0  0
    3.1168    1.6828   -0.0582 C   0  0  0  0  0
    2.4596    2.8473    0.3566 C   0  0  0  0  0
    3.0735    4.0965    0.1630 C   0  0  0  0  0
    4.3476    4.1804   -0.3997 C   0  0  0  0  0
    5.0224    3.0191   -0.7669 C   0  0  0  0  0
    1.1476    2.8647    1.0351 C   0  0  0  0  0
    0.3045    3.7240    0.8361 O   0  0  0  0  0
    1.1295    1.9210    2.0080 O   0  0  0  0  0
    0.0255    2.0061    2.9222 C   0  0  0  0  0
   -1.2216    1.3620    2.3461 C   0  0  0  0  0
    4.4107    1.7753   -0.5998 C   0  0  0  0  0
   -0.4841   -0.6703   -0.6623 H   0  0  0  0  0
    0.9648   -1.6350   -0.3665 H   0  0  0  0  0
    0.3803   -0.0174   -2.9190 H   0  0  0  0  0
    0.2495   -1.7877   -2.7806 H   0  0  0  0  0
    1.8286   -0.9769   -2.6553 H   0  0  0  0  0
    2.5588    5.0094    0.4601 H   0  0  0  0  0
    4.8140    5.1521   -0.5453 H   0  0  0  0  0
    6.0184    3.0812   -1.1999 H   0  0  0  0  0
   -0.1594    3.0484    3.2087 H   0  0  0  0  0
    0.3245    1.4748    3.8318 H   0  0  0  0  0
   -1.5497    1.8742    1.4365 H   0  0  0  0  0
   -2.0390    1.3917    3.0727 H   0  0  0  0  0
   -1.0272    0.3199    2.0744 H   0  0  0  0  0
    4.9359    0.8759   -0.9192 H   0  0  0  0  0
  1  2  2  0  0  0
  2  6  1  0  0  0
  2  3  1  0  0  0
  3  4  1  0  0  0
  4  5  1  0  0  0
  4 17  1  0  0  0
  4 18  1  0  0  0
  5 19  1  0  0  0
  5 20  1  0  0  0
  5 21  1  0  0  0
  6  7  2  0  0  0
  6 16  1  0  0  0
  7  8  1  0  0  0
  7 11  1  0  0  0
  8  9  2  0  0  0
  8 22  1  0  0  0
  9 10  1  0  0  0
  9 23  1  0  0  0
 10 16  2  0  0  0
 10 24  1  0  0  0
 11 13  1  0  0  0
 11 12  2  0  0  0
 13 14  1  0  0  0
 14 15  1  0  0  0
 14 25  1  0  0  0
 14 26  1  0  0  0
 15 27  1  0  0  0
 15 28  1  0  0  0
 15 29  1  0  0  0
 16 30  1  0  0  0
M  END