62
 OpenBabel11300911173D

 13 13  0  0  0  0  0  0  0  0999 V2000
    0.9390    0.0062   -0.0034 O   0  0  0  0  0
    2.3100    0.0158   -0.0006 C   0  0  0  0  0
    3.0322   -1.1824    0.0003 C   0  0  0  0  0
    4.4264   -1.1688    0.0031 C   0  0  0  0  0
    5.0965    0.0520    0.0051 C   0  0  0  0  0
    4.3904    1.2546    0.0043 C   0  0  0  0  0
    6.8172    0.0765    0.0087 Cl  0  0  0  0  0
    2.2068   -2.6976   -0.0022 Cl  0  0  0  0  0
    2.9950    1.2346    0.0014 C   0  0  0  0  0
    2.1517    2.7401    0.0005 Cl  0  0  0  0  0
    0.6427   -0.9235   -0.0045 H   0  0  0  0  0
    4.9850   -2.1012    0.0038 H   0  0  0  0  0
    4.9234    2.2020    0.0059 H   0  0  0  0  0
  1  2  1  0  0  0
  1 11  1  0  0  0
  2  3  2  0  0  0
  2  9  1  0  0  0
  3  4  1  0  0  0
  3  8  1  0  0  0
  4  5  2  0  0  0
  4 12  1  0  0  0
  5  6  1  0  0  0
  5  7  1  0  0  0
  6  9  2  0  0  0
  6 13  1  0  0  0
  9 10  1  0  0  0
M  END