74
 OpenBabel11300911523D

 30 30  0  0  0  0  0  0  0  0999 V2000
    3.7019    1.2253   -2.8916 O   0  0  0  0  0
    3.2092    0.1443   -2.1029 C   0  0  0  0  0
    3.5802    0.3355   -0.6221 C   0  0  0  0  0
    5.0242    0.6141   -0.4576 N   0  0  0  0  0
    5.9772   -0.3741   -0.6990 C   0  0  0  0  0
    7.3242   -0.0711   -0.9568 C   0  0  0  0  0
    8.2721   -1.0585   -1.2537 C   0  0  0  0  0
    7.9028   -2.3968   -1.2820 C   0  0  0  0  0
    6.5904   -2.7550   -0.9855 C   0  0  0  0  0
    6.1656   -4.1930   -1.0259 C   0  0  0  0  0
    5.6497   -1.7447   -0.7045 C   0  0  0  0  0
    5.3919    2.0281   -0.2764 C   0  0  0  0  0
    5.9318    2.2862    1.1232 C   0  0  0  0  0
    4.6624    1.2349   -2.7066 H   0  0  0  0  0
    3.6256   -0.7828   -2.5071 H   0  0  0  0  0
    2.1214    0.1012   -2.2180 H   0  0  0  0  0
    3.2624   -0.5253   -0.0249 H   0  0  0  0  0
    3.0015    1.1820   -0.2307 H   0  0  0  0  0
    7.6803    0.9537   -0.9549 H   0  0  0  0  0
    9.2980   -0.7730   -1.4696 H   0  0  0  0  0
    8.6441   -3.1532   -1.5272 H   0  0  0  0  0
    5.4256   -4.4021   -0.2458 H   0  0  0  0  0
    7.0165   -4.8605   -0.8526 H   0  0  0  0  0
    5.7300   -4.4272   -2.0022 H   0  0  0  0  0
    4.6377   -2.0672   -0.4778 H   0  0  0  0  0
    4.5154    2.6731   -0.4192 H   0  0  0  0  0
    6.1034    2.3584   -1.0408 H   0  0  0  0  0
    5.1728    2.0661    1.8800 H   0  0  0  0  0
    6.2198    3.3371    1.2252 H   0  0  0  0  0
    6.8112    1.6736    1.3430 H   0  0  0  0  0
  1  2  1  0  0  0
  1 14  1  0  0  0
  2  3  1  0  0  0
  2 15  1  0  0  0
  2 16  1  0  0  0
  3  4  1  0  0  0
  3 17  1  0  0  0
  3 18  1  0  0  0
  4 12  1  0  0  0
  4  5  1  0  0  0
  5  6  2  0  0  0
  5 11  1  0  0  0
  6  7  1  0  0  0
  6 19  1  0  0  0
  7  8  2  0  0  0
  7 20  1  0  0  0
  8  9  1  0  0  0
  8 21  1  0  0  0
  9 11  2  0  0  0
  9 10  1  0  0  0
 10 22  1  0  0  0
 10 23  1  0  0  0
 10 24  1  0  0  0
 11 25  1  0  0  0
 12 13  1  0  0  0
 12 26  1  0  0  0
 12 27  1  0  0  0
 13 28  1  0  0  0
 13 29  1  0  0  0
 13 30  1  0  0  0
M  END