83
 OpenBabel11300911173D

 15 15  0  0  0  0  0  0  0  0999 V2000
    0.9722   -0.0348    0.1031 F   0  0  0  0  0
    2.3089   -0.0401   -0.0056 C   0  0  0  0  0
    3.0018    1.1692   -0.1077 C   0  0  0  0  0
    4.3964    1.1348   -0.2273 C   0  0  0  0  0
    5.0737   -0.0881   -0.2363 C   0  0  0  0  0
    4.3656   -1.2855   -0.1295 C   0  0  0  0  0
    2.2514    2.4656   -0.1048 C   0  0  0  0  0
    2.9773   -1.2611   -0.0143 C   0  0  0  0  0
    4.9650    2.0582   -0.3137 H   0  0  0  0  0
    6.1569   -0.1051   -0.3280 H   0  0  0  0  0
    4.8948   -2.2345   -0.1372 H   0  0  0  0  0
    2.9328    3.3226   -0.1073 H   0  0  0  0  0
    1.6271    2.5406    0.7912 H   0  0  0  0  0
    1.6165    2.5353   -0.9935 H   0  0  0  0  0
    2.4103   -2.1826    0.0679 H   0  0  0  0  0
  1  2  1  0  0  0
  2  3  2  0  0  0
  2  8  1  0  0  0
  3  4  1  0  0  0
  3  7  1  0  0  0
  4  5  2  0  0  0
  4  9  1  0  0  0
  5  6  1  0  0  0
  5 10  1  0  0  0
  6  8  2  0  0  0
  6 11  1  0  0  0
  7 12  1  0  0  0
  7 13  1  0  0  0
  7 14  1  0  0  0
  8 15  1  0  0  0
M  END