86
 OpenBabel11300911523D

 15 15  0  0  0  0  0  0  0  0999 V2000
   -0.6256   -1.2335   -0.0926 C   0  0  0  0  0
   -1.3777   -0.0547   -0.0540 C   0  0  0  0  0
   -0.7404    1.1873   -0.0089 C   0  0  0  0  0
    0.6551    1.2654    0.0005 C   0  0  0  0  0
    1.4142    0.0916   -0.0345 C   0  0  0  0  0
    3.1428    0.1058   -0.0233 Cl  0  0  0  0  0
    1.3733    2.8356    0.0569 Cl  0  0  0  0  0
    0.7738   -1.1517   -0.0801 C   0  0  0  0  0
   -1.2954   -2.5763   -0.1355 C   0  0  0  0  0
   -2.4655   -0.0929   -0.0593 H   0  0  0  0  0
   -1.3405    2.0950    0.0193 H   0  0  0  0  0
    1.3674   -2.0630   -0.1059 H   0  0  0  0  0
   -2.3845   -2.4800   -0.2006 H   0  0  0  0  0
   -1.0595   -3.1433    0.7709 H   0  0  0  0  0
   -0.9572   -3.1392   -1.0117 H   0  0  0  0  0
  1  2  2  0  0  0
  1  8  1  0  0  0
  1  9  1  0  0  0
  2  3  1  0  0  0
  2 10  1  0  0  0
  3  4  2  0  0  0
  3 11  1  0  0  0
  4  5  1  0  0  0
  4  7  1  0  0  0
  5  8  2  0  0  0
  5  6  1  0  0  0
  8 12  1  0  0  0
  9 13  1  0  0  0
  9 14  1  0  0  0
  9 15  1  0  0  0
M  END