88
 OpenBabel11300911523D

 12 12  0  0  0  0  0  0  0  0999 V2000
   -0.6296   -1.2478   -0.0251 C   0  0  0  0  0
   -1.3942   -0.0753   -0.0259 C   0  0  0  0  0
   -0.7608    1.1711   -0.0262 C   0  0  0  0  0
    0.6348    1.2487   -0.0258 C   0  0  0  0  0
    1.3994    0.0764   -0.0251 C   0  0  0  0  0
    3.1266    0.0977   -0.0245 Cl  0  0  0  0  0
    1.3510    2.8205   -0.0263 Cl  0  0  0  0  0
   -3.1216   -0.0963   -0.0264 Cl  0  0  0  0  0
    0.7661   -1.1698   -0.0247 C   0  0  0  0  0
   -1.3459   -2.8195   -0.0247 Cl  0  0  0  0  0
   -1.3551    2.0826   -0.0268 H   0  0  0  0  0
    1.3603   -2.0807   -0.0241 H   0  0  0  0  0
  1  2  2  0  0  0
  1  9  1  0  0  0
  1 10  1  0  0  0
  2  3  1  0  0  0
  2  8  1  0  0  0
  3  4  2  0  0  0
  3 11  1  0  0  0
  4  5  1  0  0  0
  4  7  1  0  0  0
  5  9  2  0  0  0
  5  6  1  0  0  0
  9 12  1  0  0  0
M  END