90
 OpenBabel11300911173D

 16 15  0  0  0  0  0  0  0  0999 V2000
    1.9169   -0.9908    0.7998 O   0  0  0  0  0
    2.3806   -0.3076   -0.1074 C   0  0  0  0  0
    2.9252    1.1013    0.0557 C   0  0  0  0  0
    2.6648    1.6873    1.4495 C   0  0  0  0  0
    1.1975    2.0290    1.6784 C   0  0  0  0  0
    4.4225    1.0576   -0.2410 C   0  0  0  0  0
    2.4287   -0.7101   -1.1344 H   0  0  0  0  0
    2.4331    1.7232   -0.7007 H   0  0  0  0  0
    3.2487    2.6074    1.5730 H   0  0  0  0  0
    2.9978    0.9916    2.2286 H   0  0  0  0  0
    0.8422    2.7474    0.9331 H   0  0  0  0  0
    1.0673    2.4777    2.6685 H   0  0  0  0  0
    0.5619    1.1401    1.6285 H   0  0  0  0  0
    4.9534    0.4370    0.4905 H   0  0  0  0  0
    4.8554    2.0623   -0.2156 H   0  0  0  0  0
    4.6145    0.6329   -1.2323 H   0  0  0  0  0
  1  2  2  0  0  0
  2  3  1  0  0  0
  2  7  1  0  0  0
  3  6  1  0  0  0
  3  4  1  0  0  0
  3  8  1  0  0  0
  4  5  1  0  0  0
  4  9  1  0  0  0
  4 10  1  0  0  0
  5 11  1  0  0  0
  5 12  1  0  0  0
  5 13  1  0  0  0
  6 14  1  0  0  0
  6 15  1  0  0  0
  6 16  1  0  0  0
M  END