93
 OpenBabel11300911173D

 29 28  0  0  0  0  0  0  0  0999 V2000
    2.5169    4.9189   -1.1701 O   0  0  0  0  0
    2.2521    3.5193   -1.1632 C   0  0  0  0  0
    2.4615    2.8903   -2.5550 C   0  0  0  0  0
    3.8580    2.5008   -2.8582 N   0  0  0  0  0
    3.9956    1.5222   -3.9570 C   0  0  0  0  0
    3.4101    0.1592   -3.5442 C   0  0  0  0  0
    3.4063    1.9375   -5.3074 C   0  0  0  0  0
    4.8153    3.6316   -2.8326 C   0  0  0  0  0
    6.2799    3.1944   -2.9973 C   0  0  0  0  0
    4.5291    4.7933   -3.7930 C   0  0  0  0  0
    2.4498    5.2203   -0.2485 H   0  0  0  0  0
    1.2062    3.3907   -0.8635 H   0  0  0  0  0
    2.8824    3.0339   -0.4097 H   0  0  0  0  0
    2.0625    3.5553   -3.3285 H   0  0  0  0  0
    1.8360    1.9926   -2.5568 H   0  0  0  0  0
    5.0566    1.3111   -4.1184 H   0  0  0  0  0
    2.3150    0.1565   -3.5381 H   0  0  0  0  0
    3.7638   -0.1386   -2.5504 H   0  0  0  0  0
    3.7289   -0.6177   -4.2484 H   0  0  0  0  0
    2.3481    2.2112   -5.2341 H   0  0  0  0  0
    3.4777    1.1117   -6.0248 H   0  0  0  0  0
    3.9510    2.7769   -5.7457 H   0  0  0  0  0
    4.7783    4.0462   -1.8181 H   0  0  0  0  0
    6.5131    2.9094   -4.0288 H   0  0  0  0  0
    6.5191    2.3536   -2.3365 H   0  0  0  0  0
    6.9534    4.0184   -2.7315 H   0  0  0  0  0
    4.6923    4.5192   -4.8370 H   0  0  0  0  0
    5.2033    5.6311   -3.5765 H   0  0  0  0  0
    3.5112    5.1800   -3.6932 H   0  0  0  0  0
  1  2  1  0  0  0
  1 11  1  0  0  0
  2  3  1  0  0  0
  2 12  1  0  0  0
  2 13  1  0  0  0
  3  4  1  0  0  0
  3 14  1  0  0  0
  3 15  1  0  0  0
  4  8  1  0  0  0
  4  5  1  0  0  0
  5  7  1  0  0  0
  5  6  1  0  0  0
  5 16  1  0  0  0
  6 17  1  0  0  0
  6 18  1  0  0  0
  6 19  1  0  0  0
  7 20  1  0  0  0
  7 21  1  0  0  0
  7 22  1  0  0  0
  8 10  1  0  0  0
  8  9  1  0  0  0
  8 23  1  0  0  0
  9 24  1  0  0  0
  9 25  1  0  0  0
  9 26  1  0  0  0
 10 27  1  0  0  0
 10 28  1  0  0  0
 10 29  1  0  0  0
M  END