94
 OpenBabel11300911173D

 18 18  0  0  0  0  0  0  0  0999 V2000
    0.9502   -0.0150    0.1634 N   0  0  0  0  0
    0.3584   -1.1022    0.2025 O   0  0  0  0  0
    0.4013    1.0916    0.2479 O   0  0  0  0  0
    2.4093   -0.0419   -0.0047 C   0  0  0  0  0
    3.1184    1.1606   -0.1009 C   0  0  0  0  0
    4.5085    1.1355   -0.2647 C   0  0  0  0  0
    5.2116   -0.0743   -0.3778 C   0  0  0  0  0
    6.6149   -0.0163   -0.3916 N   0  0  0  0  0
    4.4776   -1.2690   -0.2214 C   0  0  0  0  0
    5.1529   -2.5665   -0.2533 N   0  0  0  0  0
    4.6707   -3.4766    0.4350 O   0  0  0  0  0
    6.1477   -2.6821   -0.9867 O   0  0  0  0  0
    3.0813   -1.2666   -0.0554 C   0  0  0  0  0
    2.6127    2.1230   -0.0364 H   0  0  0  0  0
    5.0460    2.0823   -0.2993 H   0  0  0  0  0
    7.0044    0.8229   -0.8145 H   0  0  0  0  0
    7.0594   -0.8581   -0.7711 H   0  0  0  0  0
    2.5368   -2.2054    0.0391 H   0  0  0  0  0
  1  4  1  0  0  0
  1  3  2  0  0  0
  1  2  2  0  0  0
  4  5  2  0  0  0
  4 13  1  0  0  0
  5  6  1  0  0  0
  5 14  1  0  0  0
  6  7  2  0  0  0
  6 15  1  0  0  0
  7  9  1  0  0  0
  7  8  1  0  0  0
  8 16  1  0  0  0
  8 17  1  0  0  0
  9 13  2  0  0  0
  9 10  1  0  0  0
 10 12  2  0  0  0
 10 11  2  0  0  0
 13 18  1  0  0  0
M  END