97
 OpenBabel11300911523D

 17 17  0  0  0  0  0  0  0  0999 V2000
    0.9935   -0.0632    0.2127 O   0  0  0  0  0
    2.1730   -0.0295   -0.1315 C   0  0  0  0  0
    2.9805   -1.2858   -0.1548 C   0  0  0  0  0
    4.3364   -1.2967   -0.5051 C   0  0  0  0  0
    5.0490   -2.4995   -0.5125 C   0  0  0  0  0
    4.4142   -3.6930   -0.1713 C   0  0  0  0  0
    3.0657   -3.6894    0.1792 C   0  0  0  0  0
    2.3507   -2.4902    0.1881 C   0  0  0  0  0
    2.8282    1.2661   -0.5339 C   0  0  0  0  0
    4.8632   -0.3864   -0.7749 H   0  0  0  0  0
    6.1020   -2.5058   -0.7847 H   0  0  0  0  0
    4.9709   -4.6271   -0.1780 H   0  0  0  0  0
    2.5684   -4.6188    0.4461 H   0  0  0  0  0
    1.2975   -2.4998    0.4638 H   0  0  0  0  0
    2.0879    2.0712   -0.4914 H   0  0  0  0  0
    3.1972    1.2024   -1.5608 H   0  0  0  0  0
    3.6375    1.5119    0.1585 H   0  0  0  0  0
  1  2  2  0  0  0
  2  9  1  0  0  0
  2  3  1  0  0  0
  3  4  2  0  0  0
  3  8  1  0  0  0
  4  5  1  0  0  0
  4 10  1  0  0  0
  5  6  2  0  0  0
  5 11  1  0  0  0
  6  7  1  0  0  0
  6 12  1  0  0  0
  7  8  2  0  0  0
  7 13  1  0  0  0
  8 14  1  0  0  0
  9 15  1  0  0  0
  9 16  1  0  0  0
  9 17  1  0  0  0
M  END