99
 OpenBabel11300911523D

 19 19  0  0  0  0  0  0  0  0999 V2000
    0.8928   -0.0870    0.0842 O   0  0  0  0  0
    2.0977   -0.0546   -0.1549 C   0  0  0  0  0
    2.8850   -1.3233   -0.2009 C   0  0  0  0  0
    4.2443   -1.3455   -0.5302 C   0  0  0  0  0
    4.9377   -2.5561   -0.5331 C   0  0  0  0  0
    4.2727   -3.7455   -0.2275 C   0  0  0  0  0
    2.9026   -3.7488    0.0426 C   0  0  0  0  0
    2.2727   -4.9231    0.4708 N   0  0  0  0  0
    2.2294   -2.5261    0.1049 C   0  0  0  0  0
    2.8033    1.2509   -0.4137 C   0  0  0  0  0
    4.7898   -0.4384   -0.7713 H   0  0  0  0  0
    6.0009   -2.5756   -0.7602 H   0  0  0  0  0
    4.8361   -4.6749   -0.2018 H   0  0  0  0  0
    1.2629   -4.9105    0.3580 H   0  0  0  0  0
    2.6881   -5.7727    0.1018 H   0  0  0  0  0
    1.1795   -2.5049    0.3918 H   0  0  0  0  0
    2.0906    2.0734   -0.2960 H   0  0  0  0  0
    3.1866    1.2771   -1.4369 H   0  0  0  0  0
    3.6090    1.3984    0.3101 H   0  0  0  0  0
  1  2  2  0  0  0
  2 10  1  0  0  0
  2  3  1  0  0  0
  3  4  2  0  0  0
  3  9  1  0  0  0
  4  5  1  0  0  0
  4 11  1  0  0  0
  5  6  2  0  0  0
  5 12  1  0  0  0
  6  7  1  0  0  0
  6 13  1  0  0  0
  7  9  2  0  0  0
  7  8  1  0  0  0
  8 14  1  0  0  0
  8 15  1  0  0  0
  9 16  1  0  0  0
 10 17  1  0  0  0
 10 18  1  0  0  0
 10 19  1  0  0  0
M  END