101
 OpenBabel11300911173D

 23 23  0  0  0  0  0  0  0  0999 V2000
    1.0163    0.0138    0.2404 N   0  0  0  0  0
    0.3498   -1.2076    0.0730 C   0  0  0  0  0
    1.0113   -2.4454    0.1521 C   0  0  0  0  0
    0.3441   -3.6663   -0.0295 C   0  0  0  0  0
   -1.0219   -3.6955   -0.3041 C   0  0  0  0  0
   -1.6978   -2.4831   -0.4211 C   0  0  0  0  0
   -1.7253   -4.9988   -0.5300 C   0  0  0  0  0
   -1.0209   -1.2680   -0.2354 C   0  0  0  0  0
    2.4078    0.0128    0.6845 C   0  0  0  0  0
    0.2286    1.1806    0.6366 C   0  0  0  0  0
    2.0746   -2.4991    0.3626 H   0  0  0  0  0
    0.9091   -4.5927    0.0441 H   0  0  0  0  0
   -2.7575   -2.4638   -0.6635 H   0  0  0  0  0
   -2.8088   -4.8899   -0.4139 H   0  0  0  0  0
   -1.3931   -5.7463    0.1980 H   0  0  0  0  0
   -1.5187   -5.3666   -1.5398 H   0  0  0  0  0
   -1.6041   -0.3607   -0.3572 H   0  0  0  0  0
    2.8143    1.0305    0.7064 H   0  0  0  0  0
    3.0458   -0.5485   -0.0066 H   0  0  0  0  0
    2.4997   -0.4042    1.6935 H   0  0  0  0  0
    0.8700    2.0505    0.8190 H   0  0  0  0  0
   -0.3293    0.9858    1.5593 H   0  0  0  0  0
   -0.4644    1.4797   -0.1566 H   0  0  0  0  0
  1 10  1  0  0  0
  1  9  1  0  0  0
  1  2  1  0  0  0
  2  3  2  0  0  0
  2  8  1  0  0  0
  3  4  1  0  0  0
  3 11  1  0  0  0
  4  5  2  0  0  0
  4 12  1  0  0  0
  5  6  1  0  0  0
  5  7  1  0  0  0
  6  8  2  0  0  0
  6 13  1  0  0  0
  7 14  1  0  0  0
  7 15  1  0  0  0
  7 16  1  0  0  0
  8 17  1  0  0  0
  9 18  1  0  0  0
  9 19  1  0  0  0
  9 20  1  0  0  0
 10 21  1  0  0  0
 10 22  1  0  0  0
 10 23  1  0  0  0
M  END