104
 OpenBabel11300911523D

 22 22  0  0  0  0  0  0  0  0999 V2000
    2.6813   -1.2242   -0.0681 O   0  0  0  0  0
    2.1013   -0.1485    0.0039 C   0  0  0  0  0
    2.8173    1.1399   -0.0683 C   0  0  0  0  0
    2.1027    2.3302    0.0116 C   0  0  0  0  0
    2.7840    3.5538   -0.0584 C   0  0  0  0  0
    4.1817    3.6303   -0.2171 C   0  0  0  0  0
    4.8407    4.8664   -0.2653 N   0  0  0  0  0
    4.1378    5.9757   -0.9141 C   0  0  0  0  0
    6.2960    4.8929   -0.4042 C   0  0  0  0  0
    4.8680    2.4029   -0.2730 C   0  0  0  0  0
    4.2010    1.1718   -0.2077 C   0  0  0  0  0
    1.0058   -0.0957    0.1255 H   0  0  0  0  0
    1.0236    2.3316    0.1366 H   0  0  0  0  0
    2.1898    4.4577    0.0407 H   0  0  0  0  0
    3.2504    6.2780   -0.3487 H   0  0  0  0  0
    3.8479    5.7124   -1.9379 H   0  0  0  0  0
    4.7743    6.8665   -0.9704 H   0  0  0  0  0
    6.7820    4.3116    0.3869 H   0  0  0  0  0
    6.6764    5.9157   -0.3038 H   0  0  0  0  0
    6.6062    4.5149   -1.3844 H   0  0  0  0  0
    5.9476    2.3677   -0.3821 H   0  0  0  0  0
    4.7704    0.2462   -0.2642 H   0  0  0  0  0
  1  2  2  0  0  0
  2  3  1  0  0  0
  2 12  1  0  0  0
  3  4  2  0  0  0
  3 11  1  0  0  0
  4  5  1  0  0  0
  4 13  1  0  0  0
  5  6  2  0  0  0
  5 14  1  0  0  0
  6 10  1  0  0  0
  6  7  1  0  0  0
  7  9  1  0  0  0
  7  8  1  0  0  0
  8 15  1  0  0  0
  8 16  1  0  0  0
  8 17  1  0  0  0
  9 18  1  0  0  0
  9 19  1  0  0  0
  9 20  1  0  0  0
 10 11  2  0  0  0
 10 21  1  0  0  0
 11 22  1  0  0  0
M  END