107
 OpenBabel11300911183D

 16 16  0  0  0  0  0  0  0  0999 V2000
   -1.3401   -0.0866   -0.0645 C   0  0  0  0  0
   -0.6919    1.1551   -0.0247 C   0  0  0  0  0
    0.7023    1.2310    0.0318 C   0  0  0  0  0
    1.4644    0.0650    0.0374 C   0  0  0  0  0
    0.8338   -1.1756   -0.0184 C   0  0  0  0  0
   -0.5610   -1.2512   -0.0744 C   0  0  0  0  0
   -2.8064   -0.1186   -0.1545 C   0  0  0  0  0
   -3.5819   -1.0680    0.3842 C   0  0  0  0  0
   -1.2687    2.0773   -0.0280 H   0  0  0  0  0
    1.1914    2.2008    0.0704 H   0  0  0  0  0
    2.5488    0.1232    0.0800 H   0  0  0  0  0
    1.4256   -2.0870   -0.0242 H   0  0  0  0  0
   -1.0292   -2.2301   -0.1369 H   0  0  0  0  0
   -3.2721    0.7095   -0.6842 H   0  0  0  0  0
   -3.1778   -1.9021    0.9483 H   0  0  0  0  0
   -4.6616   -1.0166    0.2830 H   0  0  0  0  0
  1  2  2  0  0  0
  1  6  1  0  0  0
  1  7  1  0  0  0
  2  3  1  0  0  0
  2  9  1  0  0  0
  3  4  2  0  0  0
  3 10  1  0  0  0
  4  5  1  0  0  0
  4 11  1  0  0  0
  5  6  2  0  0  0
  5 12  1  0  0  0
  6 13  1  0  0  0
  7  8  2  0  0  0
  7 14  1  0  0  0
  8 15  1  0  0  0
  8 16  1  0  0  0
M  END