108
 OpenBabel11300911523D

 17 17  0  0  0  0  0  0  0  0999 V2000
    1.5981   -0.3256   -1.0335 N   0  0  0  0  0
    2.5099   -0.0042    0.0574 C   0  0  0  0  0
    2.9799    1.4251   -0.0227 C   0  0  0  0  0
    2.0870    2.4797    0.2186 C   0  0  0  0  0
    2.5163    3.8056    0.1447 C   0  0  0  0  0
    3.8422    4.0921   -0.1745 C   0  0  0  0  0
    4.7381    3.0537   -0.4223 C   0  0  0  0  0
    4.3098    1.7265   -0.3488 C   0  0  0  0  0
    1.4100   -1.3254   -1.0277 H   0  0  0  0  0
    2.0623   -0.1224   -1.9177 H   0  0  0  0  0
    3.3659   -0.6881    0.0273 H   0  0  0  0  0
    2.0092   -0.1674    1.0186 H   0  0  0  0  0
    1.0473    2.2641    0.4562 H   0  0  0  0  0
    1.8140    4.6136    0.3319 H   0  0  0  0  0
    4.1758    5.1246   -0.2337 H   0  0  0  0  0
    5.7711    3.2776   -0.6748 H   0  0  0  0  0
    5.0220    0.9295   -0.5479 H   0  0  0  0  0
  1  2  1  0  0  0
  1  9  1  0  0  0
  1 10  1  0  0  0
  2  3  1  0  0  0
  2 11  1  0  0  0
  2 12  1  0  0  0
  3  4  2  0  0  0
  3  8  1  0  0  0
  4  5  1  0  0  0
  4 13  1  0  0  0
  5  6  2  0  0  0
  5 14  1  0  0  0
  6  7  1  0  0  0
  6 15  1  0  0  0
  7  8  2  0  0  0
  7 16  1  0  0  0
  8 17  1  0  0  0
M  END