114
 OpenBabel11300911183D

 23 24  0  0  0  0  0  0  0  0999 V2000
    1.6845    1.1205   -0.1189 O   0  0  0  0  0
    0.8126    2.1160   -0.4917 C   0  0  0  0  0
    0.9881    2.8798   -1.6477 C   0  0  0  0  0
    0.0406    3.8467   -1.9886 C   0  0  0  0  0
   -1.0889    4.0307   -1.1894 C   0  0  0  0  0
   -1.2774    3.2447   -0.0524 C   0  0  0  0  0
   -0.3291    2.2813    0.2927 C   0  0  0  0  0
    3.0291    1.4111   -0.0522 C   0  0  0  0  0
    3.8965    0.3472   -0.3107 C   0  0  0  0  0
    5.2773    0.5304   -0.2268 C   0  0  0  0  0
    5.7934    1.7771    0.1245 C   0  0  0  0  0
    4.9297    2.8367    0.4025 C   0  0  0  0  0
    3.5473    2.6528    0.3260 C   0  0  0  0  0
    1.8544    2.7261   -2.2848 H   0  0  0  0  0
    0.1792    4.4513   -2.8812 H   0  0  0  0  0
   -1.8283    4.7811   -1.4588 H   0  0  0  0  0
   -2.1643    3.3780    0.5613 H   0  0  0  0  0
   -0.4777    1.6617    1.1725 H   0  0  0  0  0
    3.4943   -0.6268   -0.5761 H   0  0  0  0  0
    5.9484   -0.2999   -0.4298 H   0  0  0  0  0
    6.8690    1.9207    0.1911 H   0  0  0  0  0
    5.3324    3.8052    0.6880 H   0  0  0  0  0
    2.8895    3.4816    0.5714 H   0  0  0  0  0
  1  8  1  0  0  0
  1  2  1  0  0  0
  2  3  2  0  0  0
  2  7  1  0  0  0
  3  4  1  0  0  0
  3 14  1  0  0  0
  4  5  2  0  0  0
  4 15  1  0  0  0
  5  6  1  0  0  0
  5 16  1  0  0  0
  6  7  2  0  0  0
  6 17  1  0  0  0
  7 18  1  0  0  0
  8  9  2  0  0  0
  8 13  1  0  0  0
  9 10  1  0  0  0
  9 19  1  0  0  0
 10 11  2  0  0  0
 10 20  1  0  0  0
 11 12  1  0  0  0
 11 21  1  0  0  0
 12 13  2  0  0  0
 12 22  1  0  0  0
 13 23  1  0  0  0
M  END