116
 OpenBabel11300911183D

 26 26  0  0  0  0  0  0  0  0999 V2000
    0.8812    0.1190    0.3511 N   0  0  0  0  0
    2.2440    0.0905    0.0293 C   0  0  0  0  0
    2.9745    1.2779   -0.0463 C   0  0  0  0  0
    4.3583    1.2558   -0.2468 C   0  0  0  0  0
    5.0436    0.0386   -0.3256 C   0  0  0  0  0
    4.3203   -1.1517   -0.1928 C   0  0  0  0  0
    6.5334    0.0088   -0.5567 C   0  0  0  0  0
    6.8724   -0.0358   -2.0481 C   0  0  0  0  0
    8.3837   -0.0861   -2.2711 C   0  0  0  0  0
    8.7278   -0.1260   -3.7516 C   0  0  0  0  0
    2.9367   -1.1214    0.0075 C   0  0  0  0  0
    0.4097    0.9618    0.0388 H   0  0  0  0  0
    0.3835   -0.7220    0.0768 H   0  0  0  0  0
    2.4713    2.2362    0.0474 H   0  0  0  0  0
    4.8976    2.1965   -0.3273 H   0  0  0  0  0
    4.8297   -2.1116   -0.2307 H   0  0  0  0  0
    6.9633   -0.8612   -0.0442 H   0  0  0  0  0
    6.9925    0.8900   -0.0906 H   0  0  0  0  0
    6.4557    0.8459   -2.5513 H   0  0  0  0  0
    6.4045   -0.9137   -2.5114 H   0  0  0  0  0
    8.8029   -0.9726   -1.7809 H   0  0  0  0  0
    8.8573    0.7914   -1.8154 H   0  0  0  0  0
    8.2931   -1.0083   -4.2318 H   0  0  0  0  0
    9.8131   -0.1654   -3.8874 H   0  0  0  0  0
    8.3532    0.7650   -4.2653 H   0  0  0  0  0
    2.4038   -2.0584    0.1436 H   0  0  0  0  0
  1  2  1  0  0  0
  1 12  1  0  0  0
  1 13  1  0  0  0
  2  3  2  0  0  0
  2 11  1  0  0  0
  3  4  1  0  0  0
  3 14  1  0  0  0
  4  5  2  0  0  0
  4 15  1  0  0  0
  5  6  1  0  0  0
  5  7  1  0  0  0
  6 11  2  0  0  0
  6 16  1  0  0  0
  7  8  1  0  0  0
  7 17  1  0  0  0
  7 18  1  0  0  0
  8  9  1  0  0  0
  8 19  1  0  0  0
  8 20  1  0  0  0
  9 10  1  0  0  0
  9 21  1  0  0  0
  9 22  1  0  0  0
 10 23  1  0  0  0
 10 24  1  0  0  0
 10 25  1  0  0  0
 11 26  1  0  0  0
M  END