119
 OpenBabel11300911533D

 14 14  0  0  0  0  0  0  0  0999 V2000
    2.7661   -1.0797    0.0154 O   0  0  0  0  0
    2.1958    0.0001    0.1075 C   0  0  0  0  0
    2.9200    1.2816   -0.0105 C   0  0  0  0  0
    2.2127    2.4823    0.1038 C   0  0  0  0  0
    2.8939    3.6977   -0.0072 C   0  0  0  0  0
    4.2718    3.7051   -0.2307 C   0  0  0  0  0
    4.9778    2.5076   -0.3447 C   0  0  0  0  0
    5.1051    5.2040   -0.3664 Cl  0  0  0  0  0
    4.3008    1.2908   -0.2345 C   0  0  0  0  0
    1.1089    0.0614    0.2837 H   0  0  0  0  0
    1.1399    2.4867    0.2778 H   0  0  0  0  0
    2.3479    4.6338    0.0810 H   0  0  0  0  0
    6.0508    2.5133   -0.5188 H   0  0  0  0  0
    4.8497    0.3550   -0.3231 H   0  0  0  0  0
  1  2  2  0  0  0
  2  3  1  0  0  0
  2 10  1  0  0  0
  3  4  2  0  0  0
  3  9  1  0  0  0
  4  5  1  0  0  0
  4 11  1  0  0  0
  5  6  2  0  0  0
  5 12  1  0  0  0
  6  7  1  0  0  0
  6  8  1  0  0  0
  7  9  2  0  0  0
  7 13  1  0  0  0
  9 14  1  0  0  0
M  END