135
 OpenBabel11300911183D

 13 12  0  0  0  0  0  0  0  0999 V2000
    1.0143   -0.0295    0.0094 N   0  0  0  0  0
    2.4726   -0.0146    0.0132 C   0  0  0  0  0
    2.9876    1.4225   -0.0128 C   0  0  0  0  0
    4.5075    1.4656   -0.0015 C   0  0  0  0  0
    0.6864   -0.9938   -0.0255 H   0  0  0  0  0
    0.6685    0.4208   -0.8372 H   0  0  0  0  0
    2.8434   -0.5664   -0.8577 H   0  0  0  0  0
    2.8322   -0.5279    0.9112 H   0  0  0  0  0
    2.6075    1.9741    0.8549 H   0  0  0  0  0
    2.6233    1.9377   -0.9095 H   0  0  0  0  0
    4.9069    0.9884    0.9009 H   0  0  0  0  0
    4.8578    2.5024   -0.0195 H   0  0  0  0  0
    4.9220    0.9514   -0.8740 H   0  0  0  0  0
  1  2  1  0  0  0
  1  5  1  0  0  0
  1  6  1  0  0  0
  2  3  1  0  0  0
  2  7  1  0  0  0
  2  8  1  0  0  0
  3  4  1  0  0  0
  3  9  1  0  0  0
  3 10  1  0  0  0
  4 11  1  0  0  0
  4 12  1  0  0  0
  4 13  1  0  0  0
M  END