138
 OpenBabel11300911533D

 22 21  0  0  0  0  0  0  0  0999 V2000
    0.3879   -0.4154   -0.2160 O   0  0  0  0  0
    1.7683   -0.3007    0.1395 C   0  0  0  0  0
    2.6170   -1.0444   -0.9019 C   0  0  0  0  0
    2.2766   -2.5436   -1.0742 C   0  0  0  0  0
    0.9218   -2.7024   -1.5031 O   0  0  0  0  0
    3.1547   -3.1453   -2.1753 C   0  0  0  0  0
    2.4610   -3.3349    0.2208 C   0  0  0  0  0
    2.1498    1.1724    0.2093 C   0  0  0  0  0
   -0.1194    0.1591    0.3856 H   0  0  0  0  0
    1.8963   -0.7475    1.1296 H   0  0  0  0  0
    3.6782   -0.9349   -0.6470 H   0  0  0  0  0
    2.4594   -0.5530   -1.8723 H   0  0  0  0  0
    0.4050   -1.9748   -1.0928 H   0  0  0  0  0
    4.2190   -3.0782   -1.9251 H   0  0  0  0  0
    2.9878   -2.6328   -3.1303 H   0  0  0  0  0
    2.9039   -4.1989   -2.3448 H   0  0  0  0  0
    3.4734   -3.2168    0.6252 H   0  0  0  0  0
    2.2808   -4.4032    0.0522 H   0  0  0  0  0
    1.7376   -3.0285    0.9836 H   0  0  0  0  0
    2.0038    1.6623   -0.7594 H   0  0  0  0  0
    3.1941    1.2953    0.5118 H   0  0  0  0  0
    1.5153    1.7012    0.9282 H   0  0  0  0  0
  1  2  1  0  0  0
  1  9  1  0  0  0
  2  8  1  0  0  0
  2  3  1  0  0  0
  2 10  1  0  0  0
  3  4  1  0  0  0
  3 11  1  0  0  0
  3 12  1  0  0  0
  4  7  1  0  0  0
  4  6  1  0  0  0
  4  5  1  0  0  0
  5 13  1  0  0  0
  6 14  1  0  0  0
  6 15  1  0  0  0
  6 16  1  0  0  0
  7 17  1  0  0  0
  7 18  1  0  0  0
  7 19  1  0  0  0
  8 20  1  0  0  0
  8 21  1  0  0  0
  8 22  1  0  0  0
M  END