139
 OpenBabel11300911183D

 28 27  0  0  0  0  0  0  0  0999 V2000
    2.8398    1.6287   -0.6104 N   0  0  0  0  0
    2.1316    0.3985   -0.2508 C   0  0  0  0  0
    2.3364    0.0375    1.2497 C   0  0  0  0  0
    1.9182    0.9865    2.4175 C   0  0  0  0  0
    2.6400    2.3420    2.3676 C   0  0  0  0  0
    0.4018    1.2234    2.4868 C   0  0  0  0  0
    2.3339    0.2840    3.7344 C   0  0  0  0  0
    0.6596    0.5462   -0.6500 C   0  0  0  0  0
    2.7394   -0.7441   -1.0956 C   0  0  0  0  0
    2.7544    1.8045   -1.6106 H   0  0  0  0  0
    3.8363    1.5258   -0.4215 H   0  0  0  0  0
    3.4083   -0.1747    1.3848 H   0  0  0  0  0
    1.8360   -0.9275    1.4201 H   0  0  0  0  0
    3.7215    2.2119    2.2538 H   0  0  0  0  0
    2.4730    2.9103    3.2908 H   0  0  0  0  0
    2.2782    2.9673    1.5464 H   0  0  0  0  0
   -0.1540    0.2871    2.3702 H   0  0  0  0  0
    0.0617    1.9281    1.7256 H   0  0  0  0  0
    0.1156    1.6576    3.4521 H   0  0  0  0  0
    1.8269   -0.6817    3.8437 H   0  0  0  0  0
    2.0793    0.8917    4.6101 H   0  0  0  0  0
    3.4139    0.1014    3.7630 H   0  0  0  0  0
    0.5405    0.5479   -1.7410 H   0  0  0  0  0
    0.2253    1.4848   -0.2971 H   0  0  0  0  0
    0.0580   -0.2811   -0.2576 H   0  0  0  0  0
    2.6468   -0.5470   -2.1698 H   0  0  0  0  0
    2.2325   -1.6955   -0.8909 H   0  0  0  0  0
    3.8050   -0.8829   -0.8773 H   0  0  0  0  0
  1  2  1  0  0  0
  1 10  1  0  0  0
  1 11  1  0  0  0
  2  9  1  0  0  0
  2  8  1  0  0  0
  2  3  1  0  0  0
  3  4  1  0  0  0
  3 12  1  0  0  0
  3 13  1  0  0  0
  4  7  1  0  0  0
  4  6  1  0  0  0
  4  5  1  0  0  0
  5 14  1  0  0  0
  5 15  1  0  0  0
  5 16  1  0  0  0
  6 17  1  0  0  0
  6 18  1  0  0  0
  6 19  1  0  0  0
  7 20  1  0  0  0
  7 21  1  0  0  0
  7 22  1  0  0  0
  8 23  1  0  0  0
  8 24  1  0  0  0
  8 25  1  0  0  0
  9 26  1  0  0  0
  9 27  1  0  0  0
  9 28  1  0  0  0
M  END