141
 OpenBabel11300911533D

 19 18  0  0  0  0  0  0  0  0999 V2000
    1.5564    0.1343   -0.0427 O   0  0  0  0  0
    2.4954   -0.3079   -0.7051 C   0  0  0  0  0
    2.9428   -1.7579   -0.6237 C   0  0  0  0  0
    1.8279   -2.7207   -0.1907 C   0  0  0  0  0
    0.7320   -2.8226   -1.2551 C   0  0  0  0  0
    2.4131   -4.1077    0.0823 C   0  0  0  0  0
    3.3192    0.5983   -1.5819 C   0  0  0  0  0
    3.7735   -1.7911    0.0910 H   0  0  0  0  0
    3.3319   -2.0591   -1.6031 H   0  0  0  0  0
    1.3708   -2.3569    0.7382 H   0  0  0  0  0
    1.1388   -3.1663   -2.2123 H   0  0  0  0  0
    0.2474   -1.8556   -1.4219 H   0  0  0  0  0
   -0.0446   -3.5301   -0.9450 H   0  0  0  0  0
    2.8857   -4.5229   -0.8144 H   0  0  0  0  0
    1.6319   -4.8032    0.4061 H   0  0  0  0  0
    3.1684   -4.0624    0.8736 H   0  0  0  0  0
    2.8255    1.5695   -1.6752 H   0  0  0  0  0
    3.4116    0.1616   -2.5796 H   0  0  0  0  0
    4.3076    0.7360   -1.1378 H   0  0  0  0  0
  1  2  2  0  0  0
  2  7  1  0  0  0
  2  3  1  0  0  0
  3  4  1  0  0  0
  3  8  1  0  0  0
  3  9  1  0  0  0
  4  6  1  0  0  0
  4  5  1  0  0  0
  4 10  1  0  0  0
  5 11  1  0  0  0
  5 12  1  0  0  0
  5 13  1  0  0  0
  6 14  1  0  0  0
  6 15  1  0  0  0
  6 16  1  0  0  0
  7 17  1  0  0  0
  7 18  1  0  0  0
  7 19  1  0  0  0
M  END