142
 OpenBabel11300911533D

 21 20  0  0  0  0  0  0  0  0999 V2000
    1.3128    0.5358    0.0234 O   0  0  0  0  0
    0.7843    1.1844    1.1828 C   0  0  0  0  0
    1.4407    2.5417    1.4169 C   0  0  0  0  0
   -0.7104    1.3659    0.9330 C   0  0  0  0  0
    2.6598    0.0681    0.1119 C   0  0  0  0  0
    2.7637   -1.1744    0.9902 C   0  0  0  0  0
    3.1007   -0.2587   -1.3118 C   0  0  0  0  0
    0.9078    0.5479    2.0652 H   0  0  0  0  0
    1.4675    3.1296    0.4941 H   0  0  0  0  0
    2.4767    2.4252    1.7522 H   0  0  0  0  0
    0.9111    3.1122    2.1866 H   0  0  0  0  0
   -0.8877    1.9616    0.0303 H   0  0  0  0  0
   -1.2006    1.8580    1.7797 H   0  0  0  0  0
   -1.1907    0.3961    0.7696 H   0  0  0  0  0
    3.3157    0.8553    0.4960 H   0  0  0  0  0
    2.0543   -1.9440    0.6673 H   0  0  0  0  0
    2.5296   -0.9436    2.0338 H   0  0  0  0  0
    3.7750   -1.5937    0.9620 H   0  0  0  0  0
    2.4637   -1.0346   -1.7527 H   0  0  0  0  0
    4.1398   -0.5999   -1.3399 H   0  0  0  0  0
    3.0065    0.6253   -1.9518 H   0  0  0  0  0
  1  5  1  0  0  0
  1  2  1  0  0  0
  2  4  1  0  0  0
  2  3  1  0  0  0
  2  8  1  0  0  0
  3  9  1  0  0  0
  3 10  1  0  0  0
  3 11  1  0  0  0
  4 12  1  0  0  0
  4 13  1  0  0  0
  4 14  1  0  0  0
  5  7  1  0  0  0
  5  6  1  0  0  0
  5 15  1  0  0  0
  6 16  1  0  0  0
  6 17  1  0  0  0
  6 18  1  0  0  0
  7 19  1  0  0  0
  7 20  1  0  0  0
  7 21  1  0  0  0
M  END