143
 OpenBabel11300911533D

 18 18  0  0  0  0  0  0  0  0999 V2000
   -0.6482   -1.2404   -0.1034 C   0  0  0  0  0
   -1.4027   -0.0649   -0.0182 C   0  0  0  0  0
   -0.7683    1.1767    0.0218 C   0  0  0  0  0
    0.6235    1.2542   -0.0172 C   0  0  0  0  0
    1.3955    0.0888   -0.0907 C   0  0  0  0  0
    2.8910    0.1838   -0.1455 C   0  0  0  0  0
    0.7504   -1.1538   -0.1383 C   0  0  0  0  0
   -1.3155   -2.5829   -0.1398 C   0  0  0  0  0
   -2.4882   -0.1076    0.0154 H   0  0  0  0  0
   -1.3603    2.0861    0.0830 H   0  0  0  0  0
    1.1044    2.2289    0.0118 H   0  0  0  0  0
    3.3594   -0.8015   -0.0495 H   0  0  0  0  0
    3.2625    0.8070    0.6749 H   0  0  0  0  0
    3.2051    0.6196   -1.0991 H   0  0  0  0  0
    1.3406   -2.0664   -0.2020 H   0  0  0  0  0
   -2.4047   -2.4891   -0.2050 H   0  0  0  0  0
   -1.0773   -3.1459    0.7686 H   0  0  0  0  0
   -0.9784   -3.1502   -1.0138 H   0  0  0  0  0
  1  2  2  0  0  0
  1  7  1  0  0  0
  1  8  1  0  0  0
  2  3  1  0  0  0
  2  9  1  0  0  0
  3  4  2  0  0  0
  3 10  1  0  0  0
  4  5  1  0  0  0
  4 11  1  0  0  0
  5  7  2  0  0  0
  5  6  1  0  0  0
  6 12  1  0  0  0
  6 13  1  0  0  0
  6 14  1  0  0  0
  7 15  1  0  0  0
  8 16  1  0  0  0
  8 17  1  0  0  0
  8 18  1  0  0  0
M  END