145
 OpenBabel11300911533D

 14 14  0  0  0  0  0  0  0  0999 V2000
   -1.4032   -0.0705    0.1050 N   0  0  0  0  0
   -0.7584    1.1143    0.0553 C   0  0  0  0  0
    0.6198    1.2406   -0.0354 C   0  0  0  0  0
    1.3972    0.0812   -0.0766 C   0  0  0  0  0
    0.7509   -1.1549   -0.0308 C   0  0  0  0  0
    2.8881    0.1753   -0.1842 C   0  0  0  0  0
   -0.6332   -1.1780    0.0603 C   0  0  0  0  0
   -1.3981    1.9912    0.0908 H   0  0  0  0  0
    1.0735    2.2250   -0.0732 H   0  0  0  0  0
    1.3058   -2.0866   -0.0645 H   0  0  0  0  0
    3.3586   -0.8117   -0.1201 H   0  0  0  0  0
    3.2895    0.7882    0.6303 H   0  0  0  0  0
    3.1695    0.6230   -1.1431 H   0  0  0  0  0
   -1.1742   -2.1191    0.1000 H   0  0  0  0  0
  1  2  2  0  0  0
  1  7  1  0  0  0
  2  3  1  0  0  0
  2  8  1  0  0  0
  3  4  2  0  0  0
  3  9  1  0  0  0
  4  5  1  0  0  0
  4  6  1  0  0  0
  5  7  2  0  0  0
  5 10  1  0  0  0
  6 11  1  0  0  0
  6 12  1  0  0  0
  6 13  1  0  0  0
  7 14  1  0  0  0
M  END