148
 OpenBabel11300911183D

 17 17  0  0  0  0  0  0  0  0999 V2000
    1.0888    0.0482    0.3542 O   0  0  0  0  0
    2.2885    0.0180    0.0824 C   0  0  0  0  0
    3.1065    1.2855   -0.0276 C   0  0  0  0  0
    4.0540    1.2178   -1.2171 C   0  0  0  0  0
    4.8918   -0.0587   -1.2024 C   0  0  0  0  0
    3.9973   -1.2958   -1.1830 C   0  0  0  0  0
    3.0484   -1.2878    0.0072 C   0  0  0  0  0
    3.6629    1.4111    0.9073 H   0  0  0  0  0
    2.4302    2.1391   -0.1405 H   0  0  0  0  0
    4.7131    2.0931   -1.2131 H   0  0  0  0  0
    3.4748    1.2561   -2.1483 H   0  0  0  0  0
    5.5492   -0.0614   -0.3243 H   0  0  0  0  0
    5.5365   -0.0852   -2.0882 H   0  0  0  0  0
    4.6163   -2.1993   -1.1543 H   0  0  0  0  0
    3.4165   -1.3334   -2.1131 H   0  0  0  0  0
    2.3347   -2.1135   -0.0818 H   0  0  0  0  0
    3.5997   -1.4122    0.9456 H   0  0  0  0  0
  1  2  2  0  0  0
  2  3  1  0  0  0
  2  7  1  0  0  0
  3  4  1  0  0  0
  3  8  1  0  0  0
  3  9  1  0  0  0
  4  5  1  0  0  0
  4 10  1  0  0  0
  4 11  1  0  0  0
  5  6  1  0  0  0
  5 12  1  0  0  0
  5 13  1  0  0  0
  6  7  1  0  0  0
  6 14  1  0  0  0
  6 15  1  0  0  0
  7 16  1  0  0  0
  7 17  1  0  0  0
M  END