153
 OpenBabel11300911183D

 11 10  0  0  0  0  0  0  0  0999 V2000
    1.0830   -0.0927   -0.1560 Br  0  0  0  0  0
    3.0058   -0.3416    0.0476 C   0  0  0  0  0
    3.7043    1.0077   -0.0221 C   0  0  0  0  0
    5.1991    0.9042    0.2288 C   0  0  0  0  0
    6.1125    0.0834   -1.2806 Br  0  0  0  0  0
    3.3099   -1.0189   -0.7540 H   0  0  0  0  0
    3.1523   -0.8296    1.0151 H   0  0  0  0  0
    3.2781    1.6707    0.7419 H   0  0  0  0  0
    3.5094    1.4861   -0.9901 H   0  0  0  0  0
    5.4336    0.3057    1.1133 H   0  0  0  0  0
    5.6445    1.8968    0.3399 H   0  0  0  0  0
  1  2  1  0  0  0
  2  3  1  0  0  0
  2  6  1  0  0  0
  2  7  1  0  0  0
  3  4  1  0  0  0
  3  8  1  0  0  0
  3  9  1  0  0  0
  4  5  1  0  0  0
  4 10  1  0  0  0
  4 11  1  0  0  0
M  END