157
 OpenBabel11300911533D

 10 10  0  0  0  0  0  0  0  0999 V2000
   -1.1645    0.0160    0.0002 C   0  0  0  0  0
   -0.3675    1.1392    0.0004 C   0  0  0  0  0
    0.9782    0.7012    0.0002 C   0  0  0  0  0
    0.9616   -0.6760   -0.0000 C   0  0  0  0  0
   -0.3466   -1.0837   -0.0000 N   0  0  0  0  0
   -2.2408   -0.0946    0.0003 H   0  0  0  0  0
   -0.7175    2.1632    0.0006 H   0  0  0  0  0
    1.8641    1.3232    0.0003 H   0  0  0  0  0
    1.7667   -1.3987   -0.0002 H   0  0  0  0  0
   -0.6598   -2.0458   -0.0002 H   0  0  0  0  0
  1  5  1  0  0  0
  1  2  2  0  0  0
  1  6  1  0  0  0
  2  3  1  0  0  0
  2  7  1  0  0  0
  3  4  2  0  0  0
  3  8  1  0  0  0
  4  5  1  0  0  0
  4  9  1  0  0  0
  5 10  1  0  0  0
M  END