159
 OpenBabel11300911533D

  9  9  0  0  0  0  0  0  0  0999 V2000
   -0.3563   -1.0855   -0.0043 O   0  0  0  0  0
   -1.1387    0.0246   -0.0022 C   0  0  0  0  0
   -0.3620    1.1600    0.0011 C   0  0  0  0  0
    0.9828    0.7168    0.0010 C   0  0  0  0  0
    0.9328   -0.6578   -0.0023 C   0  0  0  0  0
   -2.2049   -0.1553   -0.0034 H   0  0  0  0  0
   -0.7223    2.1789    0.0033 H   0  0  0  0  0
    1.8782    1.3221    0.0031 H   0  0  0  0  0
    1.6828   -1.4362   -0.0037 H   0  0  0  0  0
  1  2  1  0  0  0
  1  5  1  0  0  0
  2  3  2  0  0  0
  2  6  1  0  0  0
  3  4  1  0  0  0
  3  7  1  0  0  0
  4  5  2  0  0  0
  4  8  1  0  0  0
  5  9  1  0  0  0
M  END