160
 OpenBabel11300911533D

 22 21  0  0  0  0  0  0  0  0999 V2000
    1.6105   -0.2359   -0.3996 O   0  0  0  0  0
    2.8183   -0.4475   -0.4973 C   0  0  0  0  0
    3.4355   -1.8200   -0.2844 C   0  0  0  0  0
    2.3857   -2.8927    0.0047 C   0  0  0  0  0
    2.9871   -4.2771    0.3093 C   0  0  0  0  0
    1.8730   -5.2499    0.7048 C   0  0  0  0  0
    3.7721   -4.8463   -0.8737 C   0  0  0  0  0
    3.7746    0.6624   -0.8473 C   0  0  0  0  0
    4.1369   -1.7462    0.5546 H   0  0  0  0  0
    3.9956   -2.0676   -1.1916 H   0  0  0  0  0
    1.6958   -2.9660   -0.8457 H   0  0  0  0  0
    1.7804   -2.5735    0.8633 H   0  0  0  0  0
    3.6711   -4.1843    1.1627 H   0  0  0  0  0
    1.1569   -5.3869   -0.1126 H   0  0  0  0  0
    1.3251   -4.8805    1.5778 H   0  0  0  0  0
    2.2856   -6.2311    0.9619 H   0  0  0  0  0
    3.1562   -4.8811   -1.7784 H   0  0  0  0  0
    4.1153   -5.8639   -0.6591 H   0  0  0  0  0
    4.6605   -4.2448   -1.0878 H   0  0  0  0  0
    3.2292    1.6069   -0.9307 H   0  0  0  0  0
    4.2528    0.4440   -1.8060 H   0  0  0  0  0
    4.5284    0.7595   -0.0629 H   0  0  0  0  0
  1  2  2  0  0  0
  2  8  1  0  0  0
  2  3  1  0  0  0
  3  4  1  0  0  0
  3  9  1  0  0  0
  3 10  1  0  0  0
  4  5  1  0  0  0
  4 11  1  0  0  0
  4 12  1  0  0  0
  5  7  1  0  0  0
  5  6  1  0  0  0
  5 13  1  0  0  0
  6 14  1  0  0  0
  6 15  1  0  0  0
  6 16  1  0  0  0
  7 17  1  0  0  0
  7 18  1  0  0  0
  7 19  1  0  0  0
  8 20  1  0  0  0
  8 21  1  0  0  0
  8 22  1  0  0  0
M  END