162
 OpenBabel11300911183D

 20 19  0  0  0  0  0  0  0  0999 V2000
    1.0244   -0.0536   -0.0210 C   0  0  0  0  0
    0.4953    1.3802    0.0025 C   0  0  0  0  0
   -1.0343    1.4148    0.0107 C   0  0  0  0  0
   -1.5548    2.8527   -0.0044 C   0  0  0  0  0
   -3.0738    2.8993    0.0129 C   0  0  0  0  0
    2.5445   -0.0842   -0.0243 C   0  0  0  0  0
    0.6550   -0.6025    0.8530 H   0  0  0  0  0
    0.6525   -0.5729   -0.9120 H   0  0  0  0  0
    0.8703    1.9222   -0.8742 H   0  0  0  0  0
    0.8775    1.8987    0.8902 H   0  0  0  0  0
   -1.4086    0.8957    0.9020 H   0  0  0  0  0
   -1.4202    0.8754   -0.8631 H   0  0  0  0  0
   -1.1905    3.3687   -0.9001 H   0  0  0  0  0
   -1.1680    3.3984    0.8636 H   0  0  0  0  0
   -3.4934    2.3851   -0.8575 H   0  0  0  0  0
   -3.4205    3.9376   -0.0068 H   0  0  0  0  0
   -3.4714    2.4263    0.9169 H   0  0  0  0  0
    2.9484    0.3949    0.8730 H   0  0  0  0  0
    2.9457    0.4349   -0.9010 H   0  0  0  0  0
    2.9034   -1.1179   -0.0485 H   0  0  0  0  0
  1  6  1  0  0  0
  1  2  1  0  0  0
  1  7  1  0  0  0
  1  8  1  0  0  0
  2  3  1  0  0  0
  2  9  1  0  0  0
  2 10  1  0  0  0
  3  4  1  0  0  0
  3 11  1  0  0  0
  3 12  1  0  0  0
  4  5  1  0  0  0
  4 13  1  0  0  0
  4 14  1  0  0  0
  5 15  1  0  0  0
  5 16  1  0  0  0
  5 17  1  0  0  0
  6 18  1  0  0  0
  6 19  1  0  0  0
  6 20  1  0  0  0
M  END