163
 OpenBabel11300911533D

 14 13  0  0  0  0  0  0  0  0999 V2000
    1.5824   -0.3795    1.5955 Cl  0  0  0  0  0
    1.8494    0.4630    0.0523 C   0  0  0  0  0
    3.2509    1.0602   -0.0395 C   0  0  0  0  0
    4.3591    0.0003   -0.0775 C   0  0  0  0  0
    5.7602    0.5984   -0.1714 C   0  0  0  0  0
    6.0263    1.4358   -1.7174 Cl  0  0  0  0  0
    1.0982    1.2558   -0.0170 H   0  0  0  0  0
    1.6699   -0.2504   -0.7582 H   0  0  0  0  0
    3.4197    1.7429    0.8024 H   0  0  0  0  0
    3.2916    1.6682   -0.9503 H   0  0  0  0  0
    4.1898   -0.6833   -0.9185 H   0  0  0  0  0
    4.3194   -0.6064    0.8340 H   0  0  0  0  0
    6.5121   -0.1937   -0.0994 H   0  0  0  0  0
    5.9392    1.3145    0.6367 H   0  0  0  0  0
  1  2  1  0  0  0
  2  3  1  0  0  0
  2  7  1  0  0  0
  2  8  1  0  0  0
  3  4  1  0  0  0
  3  9  1  0  0  0
  3 10  1  0  0  0
  4  5  1  0  0  0
  4 11  1  0  0  0
  4 12  1  0  0  0
  5  6  1  0  0  0
  5 13  1  0  0  0
  5 14  1  0  0  0
M  END