164
 OpenBabel11300911533D

 16 15  0  0  0  0  0  0  0  0999 V2000
    3.0024   -0.5525   -1.0444 O   0  0  0  0  0
    2.2576    0.2989   -0.5703 C   0  0  0  0  0
    2.7144    1.6175    0.0061 C   0  0  0  0  0
    4.2278    1.7938   -0.0594 C   0  0  0  0  0
    4.6573    3.1349    0.5329 C   0  0  0  0  0
    6.1650    3.3173    0.4633 C   0  0  0  0  0
    1.1664    0.1333   -0.5414 H   0  0  0  0  0
    2.3685    1.6597    1.0444 H   0  0  0  0  0
    2.2116    2.4129   -0.5546 H   0  0  0  0  0
    4.5627    1.7252   -1.1020 H   0  0  0  0  0
    4.7187    0.9758    0.4828 H   0  0  0  0  0
    4.3351    3.2003    1.5786 H   0  0  0  0  0
    4.1708    3.9545   -0.0085 H   0  0  0  0  0
    6.6821    2.5278    1.0182 H   0  0  0  0  0
    6.4509    4.2807    0.8972 H   0  0  0  0  0
    6.5153    3.2946   -0.5737 H   0  0  0  0  0
  1  2  2  0  0  0
  2  3  1  0  0  0
  2  7  1  0  0  0
  3  4  1  0  0  0
  3  8  1  0  0  0
  3  9  1  0  0  0
  4  5  1  0  0  0
  4 10  1  0  0  0
  4 11  1  0  0  0
  5  6  1  0  0  0
  5 12  1  0  0  0
  5 13  1  0  0  0
  6 14  1  0  0  0
  6 15  1  0  0  0
  6 16  1  0  0  0
M  END