166
 OpenBabel11300911183D

 17 16  0  0  0  0  0  0  0  0999 V2000
    3.0010   -0.8007   -0.6287 O   0  0  0  0  0
    2.2735    0.1064    0.2014 C   0  0  0  0  0
    2.7477    1.5414   -0.0564 C   0  0  0  0  0
    4.1538    1.6856    0.3410 N   0  0  0  0  0
    4.6814    2.9910   -0.0443 C   0  0  0  0  0
    6.1398    3.1017    0.3746 C   0  0  0  0  0
    2.7345   -1.6967   -0.3603 H   0  0  0  0  0
    2.4237   -0.1763    1.2492 H   0  0  0  0  0
    1.2096    0.0120   -0.0403 H   0  0  0  0  0
    2.1240    2.2377    0.5138 H   0  0  0  0  0
    2.6394    1.7608   -1.1250 H   0  0  0  0  0
    4.6811    0.9436   -0.1275 H   0  0  0  0  0
    4.1095    3.7896    0.4434 H   0  0  0  0  0
    4.6084    3.1341   -1.1295 H   0  0  0  0  0
    6.2498    2.9857    1.4576 H   0  0  0  0  0
    6.5373    4.0836    0.0987 H   0  0  0  0  0
    6.7524    2.3395   -0.1172 H   0  0  0  0  0
  1  2  1  0  0  0
  1  7  1  0  0  0
  2  3  1  0  0  0
  2  8  1  0  0  0
  2  9  1  0  0  0
  3  4  1  0  0  0
  3 10  1  0  0  0
  3 11  1  0  0  0
  4  5  1  0  0  0
  4 12  1  0  0  0
  5  6  1  0  0  0
  5 13  1  0  0  0
  5 14  1  0  0  0
  6 15  1  0  0  0
  6 16  1  0  0  0
  6 17  1  0  0  0
M  END