168
 OpenBabel11300911533D

 11 11  0  0  0  0  0  0  0  0999 V2000
   -1.3895   -0.0704    0.0567 N   0  0  0  0  0
   -0.7416    1.1154    0.0332 C   0  0  0  0  0
    0.6382    1.2389   -0.0032 C   0  0  0  0  0
    1.4033    0.0771   -0.0155 C   0  0  0  0  0
    0.7659   -1.1583    0.0081 C   0  0  0  0  0
   -0.6193   -1.1807    0.0440 C   0  0  0  0  0
   -1.3822    1.9919    0.0441 H   0  0  0  0  0
    1.1048    2.2178   -0.0209 H   0  0  0  0  0
    2.4872    0.1350   -0.0438 H   0  0  0  0  0
    1.3326   -2.0813   -0.0006 H   0  0  0  0  0
   -1.1641   -2.1208    0.0634 H   0  0  0  0  0
  1  2  2  0  0  0
  1  6  1  0  0  0
  2  3  1  0  0  0
  2  7  1  0  0  0
  3  4  2  0  0  0
  3  8  1  0  0  0
  4  5  1  0  0  0
  4  9  1  0  0  0
  5  6  2  0  0  0
  5 10  1  0  0  0
  6 11  1  0  0  0
M  END