170
 OpenBabel11300911533D

 23 22  0  0  0  0  0  0  0  0999 V2000
    0.8794    0.0345    0.2319 O   0  0  0  0  0
    2.0968    0.1215    0.3886 C   0  0  0  0  0
    3.0284   -1.0690    0.2750 C   0  0  0  0  0
    2.2696   -2.3806    0.1012 C   0  0  0  0  0
    3.2202   -3.5409   -0.0197 C   0  0  0  0  0
    3.5773   -4.4145    0.9420 C   0  0  0  0  0
    3.1012   -4.3751    2.3681 C   0  0  0  0  0
    4.5350   -5.5381    0.6410 C   0  0  0  0  0
    2.7460    1.4449    0.7003 C   0  0  0  0  0
    3.6377   -1.1068    1.1856 H   0  0  0  0  0
    3.6924   -0.8949   -0.5797 H   0  0  0  0  0
    1.6584   -2.3427   -0.8096 H   0  0  0  0  0
    1.5583   -2.5228    0.9213 H   0  0  0  0  0
    3.6424   -3.6665   -1.0171 H   0  0  0  0  0
    2.4258   -3.5433    2.5791 H   0  0  0  0  0
    3.9563   -4.2757    3.0452 H   0  0  0  0  0
    2.5726   -5.3019    2.6144 H   0  0  0  0  0
    4.8470   -5.5490   -0.4087 H   0  0  0  0  0
    4.0667   -6.5038    0.8576 H   0  0  0  0  0
    5.4364   -5.4421    1.2552 H   0  0  0  0  0
    1.9915    2.2365    0.6976 H   0  0  0  0  0
    3.4975    1.6731   -0.0596 H   0  0  0  0  0
    3.2101    1.4006    1.6887 H   0  0  0  0  0
  1  2  2  0  0  0
  2  9  1  0  0  0
  2  3  1  0  0  0
  3  4  1  0  0  0
  3 10  1  0  0  0
  3 11  1  0  0  0
  4  5  1  0  0  0
  4 12  1  0  0  0
  4 13  1  0  0  0
  5  6  2  0  0  0
  5 14  1  0  0  0
  6  8  1  0  0  0
  6  7  1  0  0  0
  7 15  1  0  0  0
  7 16  1  0  0  0
  7 17  1  0  0  0
  8 18  1  0  0  0
  8 19  1  0  0  0
  8 20  1  0  0  0
  9 21  1  0  0  0
  9 22  1  0  0  0
  9 23  1  0  0  0
M  END