175
 OpenBabel11300911533D

 21 20  0  0  0  0  0  0  0  0999 V2000
    0.9292    0.0378   -0.0086 O   0  0  0  0  0
    2.3499   -0.0097    0.0136 C   0  0  0  0  0
    2.8910    1.4123   -0.0068 C   0  0  0  0  0
    4.4177    1.4322    0.0112 C   0  0  0  0  0
    4.9575    2.8636    0.0022 C   0  0  0  0  0
    6.4866    2.8794    0.0086 C   0  0  0  0  0
    7.0301    4.2995    0.0101 C   0  0  0  0  0
    0.6130   -0.8818    0.0052 H   0  0  0  0  0
    2.6925   -0.5716   -0.8619 H   0  0  0  0  0
    2.6659   -0.5359    0.9203 H   0  0  0  0  0
    2.4932    1.9643    0.8537 H   0  0  0  0  0
    2.5147    1.9318   -0.8964 H   0  0  0  0  0
    4.8021    0.8896   -0.8610 H   0  0  0  0  0
    4.7820    0.9092    0.9037 H   0  0  0  0  0
    4.5804    3.4041    0.8791 H   0  0  0  0  0
    4.5886    3.3910   -0.8858 H   0  0  0  0  0
    6.8673    2.3496   -0.8717 H   0  0  0  0  0
    6.8607    2.3509    0.8929 H   0  0  0  0  0
    6.6970    4.8478   -0.8774 H   0  0  0  0  0
    8.1238    4.2860    0.0103 H   0  0  0  0  0
    6.6964    4.8462    0.8974 H   0  0  0  0  0
  1  2  1  0  0  0
  1  8  1  0  0  0
  2  3  1  0  0  0
  2  9  1  0  0  0
  2 10  1  0  0  0
  3  4  1  0  0  0
  3 11  1  0  0  0
  3 12  1  0  0  0
  4  5  1  0  0  0
  4 13  1  0  0  0
  4 14  1  0  0  0
  5  6  1  0  0  0
  5 15  1  0  0  0
  5 16  1  0  0  0
  6  7  1  0  0  0
  6 17  1  0  0  0
  6 18  1  0  0  0
  7 19  1  0  0  0
  7 20  1  0  0  0
  7 21  1  0  0  0
M  END