179
 OpenBabel11300911193D

 24 23  0  0  0  0  0  0  0  0999 V2000
    0.9423    0.0171   -0.0182 O   0  0  0  0  0
    2.3623   -0.0331    0.0102 C   0  0  0  0  0
    2.9049    1.3885   -0.0190 C   0  0  0  0  0
    4.4316    1.4108    0.0045 C   0  0  0  0  0
    4.9664    2.8439   -0.0132 C   0  0  0  0  0
    6.4957    2.8695   -0.0021 C   0  0  0  0  0
    7.0264    4.3027   -0.0041 C   0  0  0  0  0
    8.5464    4.3347   -0.0030 C   0  0  0  0  0
    0.6239   -0.9015    0.0014 H   0  0  0  0  0
    2.7079   -0.6017   -0.8591 H   0  0  0  0  0
    2.6739   -0.5517    0.9225 H   0  0  0  0  0
    2.5034    1.9475    0.8354 H   0  0  0  0  0
    2.5318    1.9012   -0.9143 H   0  0  0  0  0
    4.8205    0.8623   -0.8620 H   0  0  0  0  0
    4.7934    0.8954    0.9026 H   0  0  0  0  0
    4.5832    3.3887    0.8584 H   0  0  0  0  0
    4.5974    3.3628   -0.9064 H   0  0  0  0  0
    6.8780    2.3342   -0.8797 H   0  0  0  0  0
    6.8662    2.3418    0.8851 H   0  0  0  0  0
    6.6552    4.8382    0.8776 H   0  0  0  0  0
    6.6564    4.8363   -0.8873 H   0  0  0  0  0
    8.9491    3.8335    0.8830 H   0  0  0  0  0
    8.9037    5.3694    0.0002 H   0  0  0  0  0
    8.9497    3.8390   -0.8919 H   0  0  0  0  0
  1  2  1  0  0  0
  1  9  1  0  0  0
  2  3  1  0  0  0
  2 10  1  0  0  0
  2 11  1  0  0  0
  3  4  1  0  0  0
  3 12  1  0  0  0
  3 13  1  0  0  0
  4  5  1  0  0  0
  4 14  1  0  0  0
  4 15  1  0  0  0
  5  6  1  0  0  0
  5 16  1  0  0  0
  5 17  1  0  0  0
  6  7  1  0  0  0
  6 18  1  0  0  0
  6 19  1  0  0  0
  7  8  1  0  0  0
  7 20  1  0  0  0
  7 21  1  0  0  0
  8 22  1  0  0  0
  8 23  1  0  0  0
  8 24  1  0  0  0
M  END