182
 OpenBabel11300911543D

 27 26  0  0  0  0  0  0  0  0999 V2000
    0.9254    0.0021   -0.0084 O   0  0  0  0  0
    2.3453   -0.0411    0.0194 C   0  0  0  0  0
    2.8825    1.3829   -0.0133 C   0  0  0  0  0
    4.4091    1.4091    0.0097 C   0  0  0  0  0
    4.9432    2.8421   -0.0114 C   0  0  0  0  0
    6.4728    2.8636   -0.0036 C   0  0  0  0  0
    7.0115    4.2952   -0.0120 C   0  0  0  0  0
    8.5399    4.3124   -0.0220 C   0  0  0  0  0
    9.0818    5.7327   -0.0216 C   0  0  0  0  0
    0.6116   -0.9181    0.0137 H   0  0  0  0  0
    2.6935   -0.6099   -0.8485 H   0  0  0  0  0
    2.6601   -0.5560    0.9327 H   0  0  0  0  0
    2.4792    1.9428    0.8400 H   0  0  0  0  0
    2.5073    1.8923   -0.9100 H   0  0  0  0  0
    4.7980    0.8589   -0.8557 H   0  0  0  0  0
    4.7716    0.8959    0.9086 H   0  0  0  0  0
    4.5630    3.3888    0.8601 H   0  0  0  0  0
    4.5735    3.3598   -0.9048 H   0  0  0  0  0
    6.8513    2.3236   -0.8801 H   0  0  0  0  0
    6.8434    2.3378    0.8849 H   0  0  0  0  0
    6.6430    4.8313    0.8713 H   0  0  0  0  0
    6.6323    4.8261   -0.8937 H   0  0  0  0  0
    8.9118    3.7862   -0.9088 H   0  0  0  0  0
    8.9245    3.7807    0.8559 H   0  0  0  0  0
    8.7382    6.2845   -0.9026 H   0  0  0  0  0
   10.1763    5.7208   -0.0339 H   0  0  0  0  0
    8.7581    6.2759    0.8722 H   0  0  0  0  0
  1  2  1  0  0  0
  1 10  1  0  0  0
  2  3  1  0  0  0
  2 11  1  0  0  0
  2 12  1  0  0  0
  3  4  1  0  0  0
  3 13  1  0  0  0
  3 14  1  0  0  0
  4  5  1  0  0  0
  4 15  1  0  0  0
  4 16  1  0  0  0
  5  6  1  0  0  0
  5 17  1  0  0  0
  5 18  1  0  0  0
  6  7  1  0  0  0
  6 19  1  0  0  0
  6 20  1  0  0  0
  7  8  1  0  0  0
  7 21  1  0  0  0
  7 22  1  0  0  0
  8  9  1  0  0  0
  8 23  1  0  0  0
  8 24  1  0  0  0
  9 25  1  0  0  0
  9 26  1  0  0  0
  9 27  1  0  0  0
M  END