184
 OpenBabel11300911193D

 31 30  0  0  0  0  0  0  0  0999 V2000
    0.9414   -0.0377   -0.0181 N   0  0  0  0  0
    2.3989   -0.0341    0.0214 C   0  0  0  0  0
    2.9272    1.3987   -0.0214 C   0  0  0  0  0
    4.4567    1.4259    0.0184 C   0  0  0  0  0
    4.9884    2.8599   -0.0086 C   0  0  0  0  0
    6.5176    2.8881    0.0127 C   0  0  0  0  0
    7.0464    4.3234    0.0047 C   0  0  0  0  0
    8.5756    4.3547    0.0098 C   0  0  0  0  0
    9.1010    5.7902    0.0202 C   0  0  0  0  0
   10.6208    5.8281    0.0152 C   0  0  0  0  0
    0.6064   -1.0000   -0.0379 H   0  0  0  0  0
    0.6203    0.3942   -0.8837 H   0  0  0  0  0
    2.7865   -0.6071   -0.8280 H   0  0  0  0  0
    2.7320   -0.5308    0.9390 H   0  0  0  0  0
    2.5288    1.9664    0.8291 H   0  0  0  0  0
    2.5779    1.8976   -0.9343 H   0  0  0  0  0
    4.8558    0.8693   -0.8383 H   0  0  0  0  0
    4.8102    0.9208    0.9255 H   0  0  0  0  0
    4.5983    3.4116    0.8554 H   0  0  0  0  0
    4.6249    3.3701   -0.9089 H   0  0  0  0  0
    6.9068    2.3475   -0.8587 H   0  0  0  0  0
    6.8830    2.3674    0.9062 H   0  0  0  0  0
    6.6649    4.8592    0.8824 H   0  0  0  0  0
    6.6720    4.8484   -0.8825 H   0  0  0  0  0
    8.9565    3.8299   -0.8749 H   0  0  0  0  0
    8.9521    3.8195    0.8900 H   0  0  0  0  0
    8.7313    6.3150    0.9088 H   0  0  0  0  0
    8.7250    6.3312   -0.8560 H   0  0  0  0  0
   11.0291    5.3190    0.8939 H   0  0  0  0  0
   10.9739    6.8640    0.0280 H   0  0  0  0  0
   11.0222    5.3436   -0.8807 H   0  0  0  0  0
  1  2  1  0  0  0
  1 11  1  0  0  0
  1 12  1  0  0  0
  2  3  1  0  0  0
  2 13  1  0  0  0
  2 14  1  0  0  0
  3  4  1  0  0  0
  3 15  1  0  0  0
  3 16  1  0  0  0
  4  5  1  0  0  0
  4 17  1  0  0  0
  4 18  1  0  0  0
  5  6  1  0  0  0
  5 19  1  0  0  0
  5 20  1  0  0  0
  6  7  1  0  0  0
  6 21  1  0  0  0
  6 22  1  0  0  0
  7  8  1  0  0  0
  7 23  1  0  0  0
  7 24  1  0  0  0
  8  9  1  0  0  0
  8 25  1  0  0  0
  8 26  1  0  0  0
  9 10  1  0  0  0
  9 27  1  0  0  0
  9 28  1  0  0  0
 10 29  1  0  0  0
 10 30  1  0  0  0
 10 31  1  0  0  0
M  END