185
 OpenBabel11300911543D

 33 32  0  0  0  0  0  0  0  0999 V2000
    0.8996    0.0039   -0.0137 O   0  0  0  0  0
    2.3195   -0.0405    0.0233 C   0  0  0  0  0
    2.8568    1.3827   -0.0168 C   0  0  0  0  0
    4.3832    1.4097    0.0164 C   0  0  0  0  0
    4.9159    2.8437   -0.0102 C   0  0  0  0  0
    6.4450    2.8696    0.0116 C   0  0  0  0  0
    6.9778    4.3030    0.0029 C   0  0  0  0  0
    8.5074    4.3269    0.0085 C   0  0  0  0  0
    9.0429    5.7596    0.0157 C   0  0  0  0  0
   10.5712    5.7810    0.0045 C   0  0  0  0  0
   11.1095    7.2029    0.0214 C   0  0  0  0  0
    0.5848   -0.9165    0.0139 H   0  0  0  0  0
    2.6723   -0.6165   -0.8383 H   0  0  0  0  0
    2.6279   -0.5489    0.9425 H   0  0  0  0  0
    2.4480    1.9489    0.8294 H   0  0  0  0  0
    2.4879    1.8851   -0.9196 H   0  0  0  0  0
    4.7790    0.8546   -0.8427 H   0  0  0  0  0
    4.7404    0.9031    0.9212 H   0  0  0  0  0
    4.5257    3.3959    0.8539 H   0  0  0  0  0
    4.5526    3.3543   -0.9108 H   0  0  0  0  0
    6.8328    2.3274   -0.8591 H   0  0  0  0  0
    6.8085    2.3486    0.9055 H   0  0  0  0  0
    6.5985    4.8412    0.8800 H   0  0  0  0  0
    6.6063    4.8289   -0.8850 H   0  0  0  0  0
    8.8855    3.7972   -0.8747 H   0  0  0  0  0
    8.8804    3.7914    0.8905 H   0  0  0  0  0
    8.6744    6.2846    0.9048 H   0  0  0  0  0
    8.6620    6.2992   -0.8597 H   0  0  0  0  0
   10.9442    5.2659   -0.8889 H   0  0  0  0  0
   10.9584    5.2396    0.8760 H   0  0  0  0  0
   10.7636    7.7635   -0.8527 H   0  0  0  0  0
   12.2036    7.1939    0.0084 H   0  0  0  0  0
   10.7847    7.7339    0.9215 H   0  0  0  0  0
  1  2  1  0  0  0
  1 12  1  0  0  0
  2  3  1  0  0  0
  2 13  1  0  0  0
  2 14  1  0  0  0
  3  4  1  0  0  0
  3 15  1  0  0  0
  3 16  1  0  0  0
  4  5  1  0  0  0
  4 17  1  0  0  0
  4 18  1  0  0  0
  5  6  1  0  0  0
  5 19  1  0  0  0
  5 20  1  0  0  0
  6  7  1  0  0  0
  6 21  1  0  0  0
  6 22  1  0  0  0
  7  8  1  0  0  0
  7 23  1  0  0  0
  7 24  1  0  0  0
  8  9  1  0  0  0
  8 25  1  0  0  0
  8 26  1  0  0  0
  9 10  1  0  0  0
  9 27  1  0  0  0
  9 28  1  0  0  0
 10 11  1  0  0  0
 10 29  1  0  0  0
 10 30  1  0  0  0
 11 31  1  0  0  0
 11 32  1  0  0  0
 11 33  1  0  0  0
M  END