189
 OpenBabel11300911543D

 35 35  0  0  0  0  0  0  0  0999 V2000
    1.2927    3.0540   -0.7337 C   0  0  0  0  0
    2.7612    2.7097   -0.5910 C   0  0  0  0  0
    2.8643    1.4669    0.0835 O   0  0  0  0  0
    4.3244    0.7950    0.2985 P   0  0  0  0  0
    4.3017   -0.8213    1.3683 S   0  0  0  0  0
    4.8512    0.6517   -1.2289 O   0  0  0  0  0
    4.1329   -0.2014   -2.1081 C   0  0  0  0  0
    4.7731   -0.1305   -3.4791 C   0  0  0  0  0
    5.1799    2.0443    0.8629 O   0  0  0  0  0
    6.5134    2.0385    1.1535 C   0  0  0  0  0
    7.4330    1.1482    0.6061 C   0  0  0  0  0
    8.7808    1.2235    0.9769 C   0  0  0  0  0
    9.2163    2.1954    1.8853 C   0  0  0  0  0
    8.2873    3.0886    2.4251 C   0  0  0  0  0
    6.9432    3.0140    2.0536 C   0  0  0  0  0
   10.9556    2.2566    2.3774 S   0  0  0  0  0
   11.6176    2.9037    0.8215 C   0  0  0  0  0
   11.0601    3.3555    3.3950 O   0  0  0  0  0
    1.1630    3.9991   -1.2678 H   0  0  0  0  0
    0.8205    3.1370    0.2508 H   0  0  0  0  0
    0.7616    2.2646   -1.2758 H   0  0  0  0  0
    3.2712    3.4873   -0.0148 H   0  0  0  0  0
    3.2243    2.6392   -1.5795 H   0  0  0  0  0
    3.0906    0.1258   -2.1686 H   0  0  0  0  0
    4.1604   -1.2299   -1.7374 H   0  0  0  0  0
    4.1970   -0.7070   -4.2078 H   0  0  0  0  0
    5.7933   -0.5264   -3.4455 H   0  0  0  0  0
    4.8439    0.9066   -3.8220 H   0  0  0  0  0
    7.1372    0.3858   -0.1074 H   0  0  0  0  0
    9.4828    0.5078    0.5545 H   0  0  0  0  0
    8.6019    3.8422    3.1445 H   0  0  0  0  0
    6.2293    3.7114    2.4862 H   0  0  0  0  0
   11.4822    2.1678    0.0255 H   0  0  0  0  0
   12.6859    3.0923    0.9540 H   0  0  0  0  0
   11.1163    3.8390    0.5605 H   0  0  0  0  0
  1  2  1  0  0  0
  1 19  1  0  0  0
  1 20  1  0  0  0
  1 21  1  0  0  0
  2  3  1  0  0  0
  2 22  1  0  0  0
  2 23  1  0  0  0
  3  4  1  0  0  0
  4  9  1  0  0  0
  4  6  1  0  0  0
  4  5  2  0  0  0
  6  7  1  0  0  0
  7  8  1  0  0  0
  7 24  1  0  0  0
  7 25  1  0  0  0
  8 26  1  0  0  0
  8 27  1  0  0  0
  8 28  1  0  0  0
  9 10  1  0  0  0
 10 11  2  0  0  0
 10 15  1  0  0  0
 11 12  1  0  0  0
 11 29  1  0  0  0
 12 13  2  0  0  0
 12 30  1  0  0  0
 13 14  1  0  0  0
 13 16  1  0  0  0
 14 15  2  0  0  0
 14 31  1  0  0  0
 15 32  1  0  0  0
 16 18  2  0  0  0
 16 17  1  0  0  0
 17 33  1  0  0  0
 17 34  1  0  0  0
 17 35  1  0  0  0
M  END