190
 OpenBabel11300911193D

 26 27  0  0  0  0  0  0  0  0999 V2000
    2.6174    1.1360   -0.5029 O   0  0  0  0  0
    3.8108    1.0191   -0.2609 C   0  0  0  0  0
    4.3850    0.4569    0.8648 O   0  0  0  0  0
    3.5547    0.0806    1.9347 C   0  0  0  0  0
    2.5588    0.9161    2.4389 C   0  0  0  0  0
    1.8124    0.5031    3.5430 C   0  0  0  0  0
    2.0778   -0.7278    4.1465 C   0  0  0  0  0
    3.0927   -1.5478    3.6501 C   0  0  0  0  0
    3.8391   -1.1408    2.5444 C   0  0  0  0  0
    4.8608    1.3754   -1.2487 C   0  0  0  0  0
    6.1439    1.8195   -0.9038 C   0  0  0  0  0
    6.4993    1.9877    0.4057 O   0  0  0  0  0
    7.0728    2.1341   -1.9008 C   0  0  0  0  0
    6.7197    2.0203   -3.2462 C   0  0  0  0  0
    5.4401    1.5989   -3.6001 C   0  0  0  0  0
    4.5131    1.2802   -2.6069 C   0  0  0  0  0
    2.3556    1.8805    1.9826 H   0  0  0  0  0
    1.0257    1.1427    3.9339 H   0  0  0  0  0
    1.4953   -1.0455    5.0078 H   0  0  0  0  0
    3.3038   -2.5011    4.1274 H   0  0  0  0  0
    4.6366   -1.7699    2.1616 H   0  0  0  0  0
    7.4287    2.2648    0.4600 H   0  0  0  0  0
    8.0712    2.4801   -1.6486 H   0  0  0  0  0
    7.4410    2.2704   -4.0202 H   0  0  0  0  0
    5.1607    1.5205   -4.6480 H   0  0  0  0  0
    3.5140    0.9557   -2.8923 H   0  0  0  0  0
  1  2  2  0  0  0
  2 10  1  0  0  0
  2  3  1  0  0  0
  3  4  1  0  0  0
  4  5  2  0  0  0
  4  9  1  0  0  0
  5  6  1  0  0  0
  5 17  1  0  0  0
  6  7  2  0  0  0
  6 18  1  0  0  0
  7  8  1  0  0  0
  7 19  1  0  0  0
  8  9  2  0  0  0
  8 20  1  0  0  0
  9 21  1  0  0  0
 10 11  2  0  0  0
 10 16  1  0  0  0
 11 13  1  0  0  0
 11 12  1  0  0  0
 12 22  1  0  0  0
 13 14  2  0  0  0
 13 23  1  0  0  0
 14 15  1  0  0  0
 14 24  1  0  0  0
 15 16  2  0  0  0
 15 25  1  0  0  0
 16 26  1  0  0  0
M  END