191
 OpenBabel11300911193D

 22 22  0  0  0  0  0  0  0  0999 V2000
    2.2789    0.9008    1.0113 O   0  0  0  0  0
    2.0637    1.8831    0.3156 C   0  0  0  0  0
    0.9204    2.1571   -0.3560 O   0  0  0  0  0
   -0.1693    1.2550   -0.1252 C   0  0  0  0  0
   -0.0832    0.0683   -1.0663 C   0  0  0  0  0
    3.1025    2.8891    0.0012 C   0  0  0  0  0
    2.8488    4.2642   -0.0609 C   0  0  0  0  0
    1.6029    4.7576    0.2079 O   0  0  0  0  0
    3.8828    5.1554   -0.3597 C   0  0  0  0  0
    5.1750    4.6759   -0.5849 C   0  0  0  0  0
    5.4395    3.3094   -0.5051 C   0  0  0  0  0
    4.4072    2.4177   -0.2084 C   0  0  0  0  0
   -1.0916    1.8122   -0.3204 H   0  0  0  0  0
   -0.2034    0.9343    0.9225 H   0  0  0  0  0
   -0.0316    0.4045   -2.1069 H   0  0  0  0  0
   -0.9535   -0.5834   -0.9477 H   0  0  0  0  0
    0.8202   -0.5194   -0.8759 H   0  0  0  0  0
    1.5972    5.7183    0.0681 H   0  0  0  0  0
    3.7051    6.2257   -0.4093 H   0  0  0  0  0
    5.9806    5.3705   -0.8119 H   0  0  0  0  0
    6.4481    2.9377   -0.6693 H   0  0  0  0  0
    4.6195    1.3520   -0.1415 H   0  0  0  0  0
  1  2  2  0  0  0
  2  6  1  0  0  0
  2  3  1  0  0  0
  3  4  1  0  0  0
  4  5  1  0  0  0
  4 13  1  0  0  0
  4 14  1  0  0  0
  5 15  1  0  0  0
  5 16  1  0  0  0
  5 17  1  0  0  0
  6  7  2  0  0  0
  6 12  1  0  0  0
  7  9  1  0  0  0
  7  8  1  0  0  0
  8 18  1  0  0  0
  9 10  2  0  0  0
  9 19  1  0  0  0
 10 11  1  0  0  0
 10 20  1  0  0  0
 11 12  2  0  0  0
 11 21  1  0  0  0
 12 22  1  0  0  0
M  END