192
 OpenBabel11300911543D

 13 13  0  0  0  0  0  0  0  0999 V2000
    0.9382    0.0101   -0.0036 O   0  0  0  0  0
    2.3085    0.0149   -0.0007 C   0  0  0  0  0
    3.0301   -1.1835    0.0001 C   0  0  0  0  0
    4.4256   -1.1689    0.0030 C   0  0  0  0  0
    5.0960    0.0536    0.0052 C   0  0  0  0  0
    4.3894    1.2554    0.0045 C   0  0  0  0  0
    6.9865    0.0809    0.0092 Br  0  0  0  0  0
    2.1354   -2.8551   -0.0029 Br  0  0  0  0  0
    2.9928    1.2334    0.0015 C   0  0  0  0  0
    2.0682    2.8901    0.0007 Br  0  0  0  0  0
    0.6381   -0.9169   -0.0048 H   0  0  0  0  0
    4.9859   -2.1008    0.0036 H   0  0  0  0  0
    4.9215    2.2030    0.0063 H   0  0  0  0  0
  1  2  1  0  0  0
  1 11  1  0  0  0
  2  3  2  0  0  0
  2  9  1  0  0  0
  3  4  1  0  0  0
  3  8  1  0  0  0
  4  5  2  0  0  0
  4 12  1  0  0  0
  5  6  1  0  0  0
  5  7  1  0  0  0
  6  9  2  0  0  0
  6 13  1  0  0  0
  9 10  1  0  0  0
M  END