193
 OpenBabel11300911193D

 17 17  0  0  0  0  0  0  0  0999 V2000
    1.7306   -0.3309    1.2121 O   0  0  0  0  0
    2.2162   -0.0629    0.1043 N   0  0  0  0  0
    2.2316   -0.8205   -0.8773 O   0  0  0  0  0
    2.8974    1.2057   -0.0412 C   0  0  0  0  0
    2.2048    2.4023    0.1295 C   0  0  0  0  0
    0.8650    2.4124    0.3787 O   0  0  0  0  0
    2.9034    3.6019    0.0307 C   0  0  0  0  0
    4.2746    3.5867   -0.2587 C   0  0  0  0  0
    4.9542    2.3859   -0.4995 C   0  0  0  0  0
    6.3422    2.3858   -0.6630 N   0  0  0  0  0
    4.2662    1.1841   -0.3388 C   0  0  0  0  0
    0.5671    3.3215    0.5522 H   0  0  0  0  0
    2.4092    4.5578    0.1802 H   0  0  0  0  0
    4.8129    4.5317   -0.3000 H   0  0  0  0  0
    6.7113    1.5579   -1.1225 H   0  0  0  0  0
    6.7168    3.2401   -1.0652 H   0  0  0  0  0
    4.7875    0.2352   -0.4410 H   0  0  0  0  0
  1  2  2  0  0  0
  2  4  1  0  0  0
  2  3  2  0  0  0
  4  5  2  0  0  0
  4 11  1  0  0  0
  5  7  1  0  0  0
  5  6  1  0  0  0
  6 12  1  0  0  0
  7  8  2  0  0  0
  7 13  1  0  0  0
  8  9  1  0  0  0
  8 14  1  0  0  0
  9 11  2  0  0  0
  9 10  1  0  0  0
 10 15  1  0  0  0
 10 16  1  0  0  0
 11 17  1  0  0  0
M  END