195
 OpenBabel11300911543D

 28 28  0  0  0  0  0  0  0  0999 V2000
    1.3023    0.6823    1.1266 O   0  0  0  0  0
    2.7248    0.6737    1.0286 C   0  0  0  0  0
    3.1506    0.9663   -0.4140 C   0  0  0  0  0
    4.6170    1.0566   -0.5526 N   0  0  0  0  0
    5.3914   -0.0990   -0.6128 C   0  0  0  0  0
    6.6854   -0.1725   -0.0688 C   0  0  0  0  0
    7.4805   -1.3210   -0.1840 C   0  0  0  0  0
    7.0018   -2.4366   -0.8567 C   0  0  0  0  0
    5.7262   -2.4026   -1.4026 C   0  0  0  0  0
    4.9372   -1.2515   -1.2768 C   0  0  0  0  0
    5.2165    2.3728   -0.2444 C   0  0  0  0  0
    6.0452    2.8749   -1.4361 C   0  0  0  0  0
    5.2600    2.8228   -2.6283 O   0  0  0  0  0
    1.0820    0.4693    2.0499 H   0  0  0  0  0
    3.0892   -0.3058    1.3534 H   0  0  0  0  0
    3.1182    1.4349    1.7104 H   0  0  0  0  0
    2.6913    1.9114   -0.7344 H   0  0  0  0  0
    2.7066    0.2281   -1.0898 H   0  0  0  0  0
    7.1136    0.6639    0.4733 H   0  0  0  0  0
    8.4771   -1.3337    0.2498 H   0  0  0  0  0
    7.6204   -3.3234   -0.9610 H   0  0  0  0  0
    5.3423   -3.2631   -1.9442 H   0  0  0  0  0
    3.9656   -1.2694   -1.7610 H   0  0  0  0  0
    5.8061    2.3523    0.6778 H   0  0  0  0  0
    4.4162    3.1032   -0.0718 H   0  0  0  0  0
    6.9393    2.2649   -1.5964 H   0  0  0  0  0
    6.3625    3.9092   -1.2762 H   0  0  0  0  0
    4.8551    1.9312   -2.6020 H   0  0  0  0  0
  1  2  1  0  0  0
  1 14  1  0  0  0
  2  3  1  0  0  0
  2 15  1  0  0  0
  2 16  1  0  0  0
  3  4  1  0  0  0
  3 17  1  0  0  0
  3 18  1  0  0  0
  4 11  1  0  0  0
  4  5  1  0  0  0
  5  6  2  0  0  0
  5 10  1  0  0  0
  6  7  1  0  0  0
  6 19  1  0  0  0
  7  8  2  0  0  0
  7 20  1  0  0  0
  8  9  1  0  0  0
  8 21  1  0  0  0
  9 10  2  0  0  0
  9 22  1  0  0  0
 10 23  1  0  0  0
 11 12  1  0  0  0
 11 24  1  0  0  0
 11 25  1  0  0  0
 12 13  1  0  0  0
 12 26  1  0  0  0
 12 27  1  0  0  0
 13 28  1  0  0  0
M  END