197
 OpenBabel11300911193D

 14 14  0  0  0  0  0  0  0  0999 V2000
    0.9762   -0.0436    0.0972 O   0  0  0  0  0
    2.3376   -0.0479   -0.0102 C   0  0  0  0  0
    3.0324    1.1570   -0.0911 C   0  0  0  0  0
    2.3042    2.3146   -0.0585 O   0  0  0  0  0
    4.4182    1.1636   -0.2007 C   0  0  0  0  0
    5.1038   -0.0540   -0.2287 C   0  0  0  0  0
    4.4028   -1.2621   -0.1474 C   0  0  0  0  0
    3.0116   -1.2599   -0.0375 C   0  0  0  0  0
    0.7361    0.9039    0.0959 H   0  0  0  0  0
    2.9246    3.0609   -0.1239 H   0  0  0  0  0
    4.9775    2.0912   -0.2648 H   0  0  0  0  0
    6.1879   -0.0650   -0.3141 H   0  0  0  0  0
    4.9416   -2.2062   -0.1697 H   0  0  0  0  0
    2.4595   -2.1925    0.0261 H   0  0  0  0  0
  1  2  1  0  0  0
  1  9  1  0  0  0
  2  3  2  0  0  0
  2  8  1  0  0  0
  3  5  1  0  0  0
  3  4  1  0  0  0
  4 10  1  0  0  0
  5  6  2  0  0  0
  5 11  1  0  0  0
  6  7  1  0  0  0
  6 12  1  0  0  0
  7  8  2  0  0  0
  7 13  1  0  0  0
  8 14  1  0  0  0
M  END