202
 OpenBabel11300911543D

 19 19  0  0  0  0  0  0  0  0999 V2000
    0.7460   -0.3114    0.1066 O   0  0  0  0  0
    1.9515   -0.1004    0.0831 C   0  0  0  0  0
    2.5047    1.2644   -0.0131 C   0  0  0  0  0
    1.6525    2.3691   -0.0293 C   0  0  0  0  0
    2.1895    3.6539   -0.1169 C   0  0  0  0  0
    3.5754    3.8309   -0.2002 C   0  0  0  0  0
    4.0659    5.1057   -0.2533 O   0  0  0  0  0
    4.4340    2.7234   -0.2063 C   0  0  0  0  0
    5.8011    2.7233   -0.2819 O   0  0  0  0  0
    6.4173    3.8632   -0.8670 C   0  0  0  0  0
    3.8877    1.4387   -0.0929 C   0  0  0  0  0
    2.6808   -0.9269    0.1303 H   0  0  0  0  0
    0.5745    2.2325    0.0322 H   0  0  0  0  0
    1.5123    4.5033   -0.1168 H   0  0  0  0  0
    3.3321    5.7358   -0.1646 H   0  0  0  0  0
    7.4454    3.5869   -1.1213 H   0  0  0  0  0
    6.4716    4.6874   -0.1505 H   0  0  0  0  0
    5.9227    4.1636   -1.7979 H   0  0  0  0  0
    4.5572    0.5820   -0.0814 H   0  0  0  0  0
  1  2  2  0  0  0
  2  3  1  0  0  0
  2 12  1  0  0  0
  3  4  2  0  0  0
  3 11  1  0  0  0
  4  5  1  0  0  0
  4 13  1  0  0  0
  5  6  2  0  0  0
  5 14  1  0  0  0
  6  8  1  0  0  0
  6  7  1  0  0  0
  7 15  1  0  0  0
  8 11  2  0  0  0
  8  9  1  0  0  0
  9 10  1  0  0  0
 10 16  1  0  0  0
 10 17  1  0  0  0
 10 18  1  0  0  0
 11 19  1  0  0  0
M  END