205
 OpenBabel11300911553D

 38 37  0  0  0  0  0  0  0  0999 V2000
    3.6754    1.8031    4.1107 C   0  0  0  0  0
    4.9803    2.3061    3.5256 C   0  0  0  0  0
    4.7747    2.6167    2.1387 O   0  0  0  0  0
    5.2021    1.6953    1.2367 C   0  0  0  0  0
    5.7550    0.6362    1.4938 O   0  0  0  0  0
    4.9155    2.1675   -0.1651 C   0  0  0  0  0
    6.1310    2.8773   -0.7480 C   0  0  0  0  0
    5.7745    3.3260   -2.4850 S   0  0  0  0  0
    7.5553    4.1389   -3.2693 P   0  0  0  0  0
    8.3311    5.7076   -2.4133 S   0  0  0  0  0
    8.6364    2.9307   -3.3836 O   0  0  0  0  0
    8.3245    1.7572   -4.1089 C   0  0  0  0  0
    7.2258    4.3949   -4.8439 O   0  0  0  0  0
    8.2310    4.8994   -5.7030 C   0  0  0  0  0
    6.4733    4.0937    0.0965 C   0  0  0  0  0
    7.4319    4.1252    0.8577 O   0  0  0  0  0
    5.5365    5.0731   -0.0290 O   0  0  0  0  0
    5.7406    6.2515    0.7645 C   0  0  0  0  0
    5.1880    6.0477    2.1629 C   0  0  0  0  0
    3.7892    1.5683    5.1732 H   0  0  0  0  0
    3.3326    0.9078    3.5839 H   0  0  0  0  0
    2.8901    2.5588    4.0009 H   0  0  0  0  0
    5.7867    1.5810    3.6741 H   0  0  0  0  0
    5.2794    3.2321    4.0279 H   0  0  0  0  0
    4.0244    2.8078   -0.1444 H   0  0  0  0  0
    4.6459    1.2810   -0.7524 H   0  0  0  0  0
    7.0032    2.2134   -0.7504 H   0  0  0  0  0
    9.2262    1.1422   -4.1732 H   0  0  0  0  0
    7.9985    1.9945   -5.1245 H   0  0  0  0  0
    7.5518    1.1826   -3.5935 H   0  0  0  0  0
    7.8367    4.9096   -6.7228 H   0  0  0  0  0
    9.1181    4.2621   -5.6776 H   0  0  0  0  0
    8.4952    5.9237   -5.4309 H   0  0  0  0  0
    5.1956    7.0622    0.2707 H   0  0  0  0  0
    6.7981    6.5369    0.7878 H   0  0  0  0  0
    4.1562    5.6842    2.1240 H   0  0  0  0  0
    5.2154    6.9812    2.7316 H   0  0  0  0  0
    5.7720    5.2985    2.7062 H   0  0  0  0  0
  1  2  1  0  0  0
  1 20  1  0  0  0
  1 21  1  0  0  0
  1 22  1  0  0  0
  2  3  1  0  0  0
  2 23  1  0  0  0
  2 24  1  0  0  0
  3  4  1  0  0  0
  4  6  1  0  0  0
  4  5  2  0  0  0
  6  7  1  0  0  0
  6 25  1  0  0  0
  6 26  1  0  0  0
  7 15  1  0  0  0
  7  8  1  0  0  0
  7 27  1  0  0  0
  8  9  1  0  0  0
  9 13  1  0  0  0
  9 11  1  0  0  0
  9 10  2  0  0  0
 11 12  1  0  0  0
 12 28  1  0  0  0
 12 29  1  0  0  0
 12 30  1  0  0  0
 13 14  1  0  0  0
 14 31  1  0  0  0
 14 32  1  0  0  0
 14 33  1  0  0  0
 15 17  1  0  0  0
 15 16  2  0  0  0
 17 18  1  0  0  0
 18 19  1  0  0  0
 18 34  1  0  0  0
 18 35  1  0  0  0
 19 36  1  0  0  0
 19 37  1  0  0  0
 19 38  1  0  0  0
M  END