206
 OpenBabel11300911193D

 16 16  0  0  0  0  0  0  0  0999 V2000
    0.9847    0.0103    0.4208 O   0  0  0  0  0
    2.1758   -0.0598    0.0871 N   0  0  0  0  0
    2.7796   -1.1152   -0.1496 O   0  0  0  0  0
    2.9235    1.1969   -0.0414 C   0  0  0  0  0
    2.2806    2.4153    0.2092 C   0  0  0  0  0
    2.9959    3.6106    0.0877 C   0  0  0  0  0
    4.3363    3.6082   -0.3184 C   0  0  0  0  0
    5.0540    4.8162   -0.2975 N   0  0  0  0  0
    4.9747    2.3673   -0.5145 C   0  0  0  0  0
    6.6502    2.3012   -0.9425 Cl  0  0  0  0  0
    4.2751    1.1645   -0.3990 C   0  0  0  0  0
    1.2358    2.4532    0.5123 H   0  0  0  0  0
    2.4979    4.5499    0.3196 H   0  0  0  0  0
    4.5054    5.6404   -0.5215 H   0  0  0  0  0
    5.9241    4.7696   -0.8257 H   0  0  0  0  0
    4.7887    0.2226   -0.5778 H   0  0  0  0  0
  1  2  2  0  0  0
  2  4  1  0  0  0
  2  3  2  0  0  0
  4  5  2  0  0  0
  4 11  1  0  0  0
  5  6  1  0  0  0
  5 12  1  0  0  0
  6  7  2  0  0  0
  6 13  1  0  0  0
  7  9  1  0  0  0
  7  8  1  0  0  0
  8 14  1  0  0  0
  8 15  1  0  0  0
  9 11  2  0  0  0
  9 10  1  0  0  0
 11 16  1  0  0  0
M  END