208
 OpenBabel11300911553D

 24 25  0  0  0  0  0  0  0  0999 V2000
    1.3628    0.6398    0.1395 N   0  0  0  0  0
    0.3982    1.6428   -0.0560 C   0  0  0  0  0
    0.7162    3.0038   -0.1197 C   0  0  0  0  0
   -0.2712    3.9656   -0.3554 C   0  0  0  0  0
   -1.5949    3.5765   -0.5405 C   0  0  0  0  0
   -1.9303    2.2268   -0.4870 C   0  0  0  0  0
   -0.9404    1.2694   -0.2489 C   0  0  0  0  0
    2.7349    0.5800   -0.1604 C   0  0  0  0  0
    3.5540   -0.2815    0.5847 C   0  0  0  0  0
    4.9305   -0.3527    0.3514 C   0  0  0  0  0
    5.5115    0.4442   -0.6306 C   0  0  0  0  0
    4.7166    1.3109   -1.3743 C   0  0  0  0  0
    3.3398    1.3804   -1.1363 C   0  0  0  0  0
    0.9917   -0.2185    0.5297 H   0  0  0  0  0
    1.7369    3.3363    0.0486 H   0  0  0  0  0
   -0.0028    5.0182   -0.3895 H   0  0  0  0  0
   -2.3623    4.3233   -0.7254 H   0  0  0  0  0
   -2.9613    1.9159   -0.6362 H   0  0  0  0  0
   -1.2227    0.2197   -0.2281 H   0  0  0  0  0
    3.1237   -0.9006    1.3677 H   0  0  0  0  0
    5.5461   -1.0270    0.9403 H   0  0  0  0  0
    6.5802    0.3906   -0.8154 H   0  0  0  0  0
    5.1620    1.9328   -2.1464 H   0  0  0  0  0
    2.7396    2.0452   -1.7507 H   0  0  0  0  0
  1  8  1  0  0  0
  1  2  1  0  0  0
  1 14  1  0  0  0
  2  3  2  0  0  0
  2  7  1  0  0  0
  3  4  1  0  0  0
  3 15  1  0  0  0
  4  5  2  0  0  0
  4 16  1  0  0  0
  5  6  1  0  0  0
  5 17  1  0  0  0
  6  7  2  0  0  0
  6 18  1  0  0  0
  7 19  1  0  0  0
  8  9  2  0  0  0
  8 13  1  0  0  0
  9 10  1  0  0  0
  9 20  1  0  0  0
 10 11  2  0  0  0
 10 21  1  0  0  0
 11 12  1  0  0  0
 11 22  1  0  0  0
 12 13  2  0  0  0
 12 23  1  0  0  0
 13 24  1  0  0  0
M  END