210
 OpenBabel11300911553D

 19 19  0  0  0  0  0  0  0  0999 V2000
    0.9284    0.0040    0.2277 O   0  0  0  0  0
    2.2787    0.0521    0.0450 C   0  0  0  0  0
    2.9514    1.2637   -0.0715 C   0  0  0  0  0
    4.3358    1.2657   -0.2583 C   0  0  0  0  0
    5.0478    0.0599   -0.3239 C   0  0  0  0  0
    4.3495   -1.1507   -0.2107 C   0  0  0  0  0
    6.5391    0.0626   -0.5433 C   0  0  0  0  0
    6.8928    0.0358   -2.0223 C   0  0  0  0  0
    2.9664   -1.1530   -0.0241 C   0  0  0  0  0
    0.5896    0.9134    0.2567 H   0  0  0  0  0
    2.4217    2.2095   -0.0219 H   0  0  0  0  0
    4.8583    2.2150   -0.3538 H   0  0  0  0  0
    4.8786   -2.0995   -0.2682 H   0  0  0  0  0
    6.9883   -0.8018   -0.0394 H   0  0  0  0  0
    6.9794    0.9500   -0.0731 H   0  0  0  0  0
    6.4956   -0.8611   -2.5101 H   0  0  0  0  0
    7.9800    0.0387   -2.1519 H   0  0  0  0  0
    6.4868    0.9093   -2.5442 H   0  0  0  0  0
    2.4278   -2.0922    0.0653 H   0  0  0  0  0
  1  2  1  0  0  0
  1 10  1  0  0  0
  2  3  2  0  0  0
  2  9  1  0  0  0
  3  4  1  0  0  0
  3 11  1  0  0  0
  4  5  2  0  0  0
  4 12  1  0  0  0
  5  6  1  0  0  0
  5  7  1  0  0  0
  6  9  2  0  0  0
  6 13  1  0  0  0
  7  8  1  0  0  0
  7 14  1  0  0  0
  7 15  1  0  0  0
  8 16  1  0  0  0
  8 17  1  0  0  0
  8 18  1  0  0  0
  9 19  1  0  0  0
M  END