212
 OpenBabel11300911553D

 15 14  0  0  0  0  0  0  0  0999 V2000
    1.2791    0.5009    0.9554 O   0  0  0  0  0
    1.5360   -0.1800   -0.0381 C   0  0  0  0  0
    2.4372   -1.3779    0.0584 C   0  0  0  0  0
    1.6724   -2.6670   -0.0383 C   0  0  0  0  0
    1.4859   -3.2120   -1.1265 O   0  0  0  0  0
    1.0673   -3.2100    1.2285 C   0  0  0  0  0
    0.9255    0.1235   -1.3808 C   0  0  0  0  0
    2.9878   -1.3496    1.0050 H   0  0  0  0  0
    3.1874   -1.3352   -0.7385 H   0  0  0  0  0
    1.8348   -3.2829    2.0027 H   0  0  0  0  0
    0.6673   -4.2104    1.0432 H   0  0  0  0  0
    0.2587   -2.5546    1.5594 H   0  0  0  0  0
    0.4299    1.0975   -1.3463 H   0  0  0  0  0
    0.1884   -0.6423   -1.6335 H   0  0  0  0  0
    1.7082    0.1597   -2.1427 H   0  0  0  0  0
  1  2  2  0  0  0
  2  7  1  0  0  0
  2  3  1  0  0  0
  3  4  1  0  0  0
  3  8  1  0  0  0
  3  9  1  0  0  0
  4  6  1  0  0  0
  4  5  2  0  0  0
  6 10  1  0  0  0
  6 11  1  0  0  0
  6 12  1  0  0  0
  7 13  1  0  0  0
  7 14  1  0  0  0
  7 15  1  0  0  0
M  END