227
 OpenBabel11300911563D

 14 13  0  0  0  0  0  0  0  0999 V2000
    2.6225    1.1707    0.0528 O   0  0  0  0  0
    2.2648    0.0830   -0.3758 C   0  0  0  0  0
    3.0223   -1.0473   -0.4105 O   0  0  0  0  0
    4.3565   -0.9172    0.1028 C   0  0  0  0  0
    4.3602   -1.0938    1.6101 C   0  0  0  0  0
    0.9079   -0.1947   -0.9474 C   0  0  0  0  0
    4.8026    0.0392   -0.1918 H   0  0  0  0  0
    4.9557   -1.7079   -0.3609 H   0  0  0  0  0
    3.7659   -0.3158    2.0993 H   0  0  0  0  0
    5.3803   -1.0508    2.0026 H   0  0  0  0  0
    3.9152   -2.0549    1.8856 H   0  0  0  0  0
    0.2946    0.7081   -0.8789 H   0  0  0  0  0
    0.4201   -0.9889   -0.3767 H   0  0  0  0  0
    1.0001   -0.4764   -1.9992 H   0  0  0  0  0
  1  2  2  0  0  0
  2  6  1  0  0  0
  2  3  1  0  0  0
  3  4  1  0  0  0
  4  5  1  0  0  0
  4  7  1  0  0  0
  4  8  1  0  0  0
  5  9  1  0  0  0
  5 10  1  0  0  0
  5 11  1  0  0  0
  6 12  1  0  0  0
  6 13  1  0  0  0
  6 14  1  0  0  0
M  END