229
 OpenBabel11300911193D

 24 24  0  0  0  0  0  0  0  0999 V2000
   -0.6943   -1.1967   -0.0743 C   0  0  0  0  0
   -1.4422   -0.0165    0.0143 C   0  0  0  0  0
   -0.8037    1.2228    0.0460 C   0  0  0  0  0
    0.5878    1.2952   -0.0129 C   0  0  0  0  0
    1.3550    0.1274   -0.1017 C   0  0  0  0  0
    2.8578    0.2048   -0.1870 C   0  0  0  0  0
    3.3383    0.3091   -1.6263 C   0  0  0  0  0
    0.7041   -1.1141   -0.1405 C   0  0  0  0  0
   -1.3840   -2.5359   -0.1307 C   0  0  0  0  0
   -1.7099   -2.9448   -1.5590 C   0  0  0  0  0
   -2.5281   -0.0565    0.0563 H   0  0  0  0  0
   -1.3916    2.1342    0.1137 H   0  0  0  0  0
    1.0711    2.2693    0.0081 H   0  0  0  0  0
    3.3004   -0.6791    0.2883 H   0  0  0  0  0
    3.2159    1.0682    0.3869 H   0  0  0  0  0
    3.0228   -0.5593   -2.2146 H   0  0  0  0  0
    4.4313    0.3609   -1.6575 H   0  0  0  0  0
    2.9422    1.2066   -2.1135 H   0  0  0  0  0
    1.2922   -2.0260   -0.2244 H   0  0  0  0  0
   -2.3047   -2.5016    0.4645 H   0  0  0  0  0
   -0.7492   -3.2981    0.3373 H   0  0  0  0  0
   -2.3749   -2.2184   -2.0384 H   0  0  0  0  0
   -2.2085   -3.9191   -1.5690 H   0  0  0  0  0
   -0.8023   -3.0216   -2.1672 H   0  0  0  0  0
  1  2  2  0  0  0
  1  8  1  0  0  0
  1  9  1  0  0  0
  2  3  1  0  0  0
  2 11  1  0  0  0
  3  4  2  0  0  0
  3 12  1  0  0  0
  4  5  1  0  0  0
  4 13  1  0  0  0
  5  8  2  0  0  0
  5  6  1  0  0  0
  6  7  1  0  0  0
  6 14  1  0  0  0
  6 15  1  0  0  0
  7 16  1  0  0  0
  7 17  1  0  0  0
  7 18  1  0  0  0
  8 19  1  0  0  0
  9 10  1  0  0  0
  9 20  1  0  0  0
  9 21  1  0  0  0
 10 22  1  0  0  0
 10 23  1  0  0  0
 10 24  1  0  0  0
M  END