231
 OpenBabel11300911563D

 26 25  0  0  0  0  0  0  0  0999 V2000
    3.6624   -3.5637    2.5436 O   0  0  0  0  0
    2.8464   -3.6163    1.6331 C   0  0  0  0  0
    3.0059   -3.0835    0.3910 O   0  0  0  0  0
    4.2541   -2.4117    0.1571 C   0  0  0  0  0
    5.3158   -3.4213   -0.2683 C   0  0  0  0  0
    6.6524   -2.7461   -0.5674 C   0  0  0  0  0
    7.7097   -3.7747   -0.9720 C   0  0  0  0  0
    9.0533   -3.1096   -1.2673 C   0  0  0  0  0
   10.1017   -4.1337   -1.6721 C   0  0  0  0  0
    1.5180   -4.3012    1.7288 C   0  0  0  0  0
    4.5632   -1.8393    1.0400 H   0  0  0  0  0
    4.0790   -1.6890   -0.6474 H   0  0  0  0  0
    4.9606   -3.9679   -1.1508 H   0  0  0  0  0
    5.4455   -4.1752    0.5174 H   0  0  0  0  0
    6.9937   -2.1968    0.3184 H   0  0  0  0  0
    6.5229   -2.0135   -1.3732 H   0  0  0  0  0
    7.3681   -4.3228   -1.8586 H   0  0  0  0  0
    7.8338   -4.5092   -0.1668 H   0  0  0  0  0
    9.4033   -2.5671   -0.3814 H   0  0  0  0  0
    8.9370   -2.3755   -2.0731 H   0  0  0  0  0
   10.2632   -4.8660   -0.8746 H   0  0  0  0  0
   11.0561   -3.6389   -1.8774 H   0  0  0  0  0
    9.7964   -4.6713   -2.5755 H   0  0  0  0  0
    1.3851   -4.6940    2.7410 H   0  0  0  0  0
    1.4803   -5.1343    1.0226 H   0  0  0  0  0
    0.7162   -3.5869    1.5261 H   0  0  0  0  0
  1  2  2  0  0  0
  2 10  1  0  0  0
  2  3  1  0  0  0
  3  4  1  0  0  0
  4  5  1  0  0  0
  4 11  1  0  0  0
  4 12  1  0  0  0
  5  6  1  0  0  0
  5 13  1  0  0  0
  5 14  1  0  0  0
  6  7  1  0  0  0
  6 15  1  0  0  0
  6 16  1  0  0  0
  7  8  1  0  0  0
  7 17  1  0  0  0
  7 18  1  0  0  0
  8  9  1  0  0  0
  8 19  1  0  0  0
  8 20  1  0  0  0
  9 21  1  0  0  0
  9 22  1  0  0  0
  9 23  1  0  0  0
 10 24  1  0  0  0
 10 25  1  0  0  0
 10 26  1  0  0  0
M  END