232
 OpenBabel11300911193D

 27 26  0  0  0  0  0  0  0  0999 V2000
    1.0884   -0.1244    0.0351 O   0  0  0  0  0
    0.6004   -1.4655    0.0262 C   0  0  0  0  0
   -0.9230   -1.4334    0.0670 C   0  0  0  0  0
   -1.5080   -2.8439    0.0840 C   0  0  0  0  0
   -3.0278   -2.8226    0.1133 C   0  0  0  0  0
    2.5143   -0.0893   -0.0247 C   0  0  0  0  0
    2.9713    1.3635    0.0200 C   0  0  0  0  0
    4.4929    1.4707   -0.0547 C   0  0  0  0  0
    4.9573    2.9169    0.0010 C   0  0  0  0  0
    0.9903   -1.9992    0.9013 H   0  0  0  0  0
    0.9421   -1.9732   -0.8826 H   0  0  0  0  0
   -1.2983   -0.8758   -0.7996 H   0  0  0  0  0
   -1.2532   -0.8737    0.9511 H   0  0  0  0  0
   -1.1401   -3.3873    0.9628 H   0  0  0  0  0
   -1.1737   -3.3963   -0.8012 H   0  0  0  0  0
   -3.3963   -2.2992    1.0013 H   0  0  0  0  0
   -3.4194   -3.8441    0.1341 H   0  0  0  0  0
   -3.4298   -2.3225   -0.7733 H   0  0  0  0  0
    2.8500   -0.5632   -0.9550 H   0  0  0  0  0
    2.9296   -0.6416    0.8267 H   0  0  0  0  0
    2.6013    1.8329    0.9399 H   0  0  0  0  0
    2.5099    1.9170   -0.8069 H   0  0  0  0  0
    4.8519    1.0141   -0.9842 H   0  0  0  0  0
    4.9463    0.9159    0.7750 H   0  0  0  0  0
    4.5442    3.4947   -0.8313 H   0  0  0  0  0
    6.0491    2.9661   -0.0598 H   0  0  0  0  0
    4.6482    3.3924    0.9377 H   0  0  0  0  0
  1  6  1  0  0  0
  1  2  1  0  0  0
  2  3  1  0  0  0
  2 10  1  0  0  0
  2 11  1  0  0  0
  3  4  1  0  0  0
  3 12  1  0  0  0
  3 13  1  0  0  0
  4  5  1  0  0  0
  4 14  1  0  0  0
  4 15  1  0  0  0
  5 16  1  0  0  0
  5 17  1  0  0  0
  5 18  1  0  0  0
  6  7  1  0  0  0
  6 19  1  0  0  0
  6 20  1  0  0  0
  7  8  1  0  0  0
  7 21  1  0  0  0
  7 22  1  0  0  0
  8  9  1  0  0  0
  8 23  1  0  0  0
  8 24  1  0  0  0
  9 25  1  0  0  0
  9 26  1  0  0  0
  9 27  1  0  0  0
M  END