234
 OpenBabel11300911563D

 19 19  0  0  0  0  0  0  0  0999 V2000
   -0.4081    0.2999   -0.5406 O   0  0  0  0  0
    0.7958    0.1042   -0.4028 C   0  0  0  0  0
    1.7413    1.2146   -0.1807 C   0  0  0  0  0
    3.1072    0.9673   -0.0483 C   0  0  0  0  0
    3.5916   -0.3146   -0.1140 O   0  0  0  0  0
    4.0115    2.0220    0.1468 C   0  0  0  0  0
    5.3260    1.6415    0.2504 O   0  0  0  0  0
    6.2921    2.6872    0.2250 C   0  0  0  0  0
    3.5293    3.3292    0.2280 C   0  0  0  0  0
    2.1587    3.5800    0.1012 C   0  0  0  0  0
    1.2659    2.5271   -0.1067 C   0  0  0  0  0
    1.2145   -0.9144   -0.4427 H   0  0  0  0  0
    4.5584   -0.2315    0.0143 H   0  0  0  0  0
    7.2841    2.2247    0.2233 H   0  0  0  0  0
    6.2179    3.3134    1.1201 H   0  0  0  0  0
    6.2026    3.2868   -0.6874 H   0  0  0  0  0
    4.1882    4.1753    0.3949 H   0  0  0  0  0
    1.7842    4.5995    0.1646 H   0  0  0  0  0
    0.2015    2.7312   -0.2082 H   0  0  0  0  0
  1  2  2  0  0  0
  2  3  1  0  0  0
  2 12  1  0  0  0
  3  4  2  0  0  0
  3 11  1  0  0  0
  4  6  1  0  0  0
  4  5  1  0  0  0
  5 13  1  0  0  0
  6  9  2  0  0  0
  6  7  1  0  0  0
  7  8  1  0  0  0
  8 14  1  0  0  0
  8 15  1  0  0  0
  8 16  1  0  0  0
  9 10  1  0  0  0
  9 17  1  0  0  0
 10 11  2  0  0  0
 10 18  1  0  0  0
 11 19  1  0  0  0
M  END