236
 OpenBabel11300911563D

 17 17  0  0  0  0  0  0  0  0999 V2000
    0.7755    0.0594    0.4313 O   0  0  0  0  0
    0.2123    1.2843    0.2007 C   0  0  0  0  0
   -1.1099    1.2427   -0.2515 C   0  0  0  0  0
   -1.8048    2.4215   -0.5254 C   0  0  0  0  0
   -1.1737    3.6448   -0.3461 C   0  0  0  0  0
   -1.8840    4.7744   -0.6239 O   0  0  0  0  0
    0.1416    3.7060    0.1028 C   0  0  0  0  0
    0.8358    2.5219    0.3767 C   0  0  0  0  0
    2.1189    0.0459    0.8966 C   0  0  0  0  0
   -1.6026    0.2838   -0.3911 H   0  0  0  0  0
   -2.8318    2.3825   -0.8762 H   0  0  0  0  0
   -1.3197    5.5460   -0.4537 H   0  0  0  0  0
    0.6424    4.6584    0.2455 H   0  0  0  0  0
    1.8597    2.6003    0.7254 H   0  0  0  0  0
    2.4155   -0.9987    1.0315 H   0  0  0  0  0
    2.2056    0.5446    1.8677 H   0  0  0  0  0
    2.7961    0.4918    0.1606 H   0  0  0  0  0
  1  9  1  0  0  0
  1  2  1  0  0  0
  2  3  2  0  0  0
  2  8  1  0  0  0
  3  4  1  0  0  0
  3 10  1  0  0  0
  4  5  2  0  0  0
  4 11  1  0  0  0
  5  7  1  0  0  0
  5  6  1  0  0  0
  6 12  1  0  0  0
  7  8  2  0  0  0
  7 13  1  0  0  0
  8 14  1  0  0  0
  9 15  1  0  0  0
  9 16  1  0  0  0
  9 17  1  0  0  0
M  END