237
 OpenBabel11300911193D

 20 20  0  0  0  0  0  0  0  0999 V2000
    1.1934    0.0869   -0.2531 O   0  0  0  0  0
    0.4701    1.2440   -0.1629 C   0  0  0  0  0
   -0.9137    1.0774   -0.2487 C   0  0  0  0  0
   -1.7772    2.1753   -0.1589 C   0  0  0  0  0
   -1.2568    3.4556    0.0194 C   0  0  0  0  0
   -1.9854    4.6073    0.1272 O   0  0  0  0  0
   -3.3677    4.4525    0.4258 C   0  0  0  0  0
    0.1271    3.6258    0.0811 C   0  0  0  0  0
    0.9904    2.5270   -0.0032 C   0  0  0  0  0
    2.6030    0.1990   -0.1020 C   0  0  0  0  0
   -1.3259    0.0807   -0.3860 H   0  0  0  0  0
   -2.8433    1.9954   -0.2407 H   0  0  0  0  0
   -3.7802    5.4467    0.6216 H   0  0  0  0  0
   -3.5143    3.8477    1.3268 H   0  0  0  0  0
   -3.9093    4.0293   -0.4266 H   0  0  0  0  0
    0.5393    4.6239    0.2065 H   0  0  0  0  0
    2.0567    2.7120    0.0591 H   0  0  0  0  0
    3.0268   -0.8079   -0.1627 H   0  0  0  0  0
    2.8650    0.6115    0.8782 H   0  0  0  0  0
    3.0396    0.7936   -0.9113 H   0  0  0  0  0
  1 10  1  0  0  0
  1  2  1  0  0  0
  2  3  2  0  0  0
  2  9  1  0  0  0
  3  4  1  0  0  0
  3 11  1  0  0  0
  4  5  2  0  0  0
  4 12  1  0  0  0
  5  8  1  0  0  0
  5  6  1  0  0  0
  6  7  1  0  0  0
  7 13  1  0  0  0
  7 14  1  0  0  0
  7 15  1  0  0  0
  8  9  2  0  0  0
  8 16  1  0  0  0
  9 17  1  0  0  0
 10 18  1  0  0  0
 10 19  1  0  0  0
 10 20  1  0  0  0
M  END