240
 OpenBabel11300911563D

 17 17  0  0  0  0  0  0  0  0999 V2000
    0.9024    0.1529    0.1425 O   0  0  0  0  0
    2.2550    0.1152   -0.0264 C   0  0  0  0  0
    2.9799    1.3054   -0.0989 C   0  0  0  0  0
    4.3783    1.2530   -0.2404 C   0  0  0  0  0
    5.0535    0.0228   -0.3056 C   0  0  0  0  0
    4.3247   -1.1664   -0.2337 C   0  0  0  0  0
    2.9307   -1.1058   -0.1009 C   0  0  0  0  0
    2.1958   -2.3539   -0.0453 N   0  0  0  0  0
    2.4674   -3.1179    0.8916 O   0  0  0  0  0
    1.4152   -2.5971   -0.9749 O   0  0  0  0  0
    5.1440    2.5054   -0.3161 N   0  0  0  0  0
    6.3731    2.4215   -0.4414 O   0  0  0  0  0
    4.5114    3.5680   -0.2506 O   0  0  0  0  0
    0.5751    1.0690    0.1113 H   0  0  0  0  0
    2.4679    2.2632   -0.0391 H   0  0  0  0  0
    6.1367   -0.0236   -0.4109 H   0  0  0  0  0
    4.8389   -2.1247   -0.2830 H   0  0  0  0  0
  1  2  1  0  0  0
  1 14  1  0  0  0
  2  3  2  0  0  0
  2  7  1  0  0  0
  3  4  1  0  0  0
  3 15  1  0  0  0
  4  5  2  0  0  0
  4 11  1  0  0  0
  5  6  1  0  0  0
  5 16  1  0  0  0
  6  7  2  0  0  0
  6 17  1  0  0  0
  7  8  1  0  0  0
  8 10  2  0  0  0
  8  9  2  0  0  0
 11 13  2  0  0  0
 11 12  2  0  0  0
M  END