241
 OpenBabel11300911193D

 24 24  0  0  0  0  0  0  0  0999 V2000
    3.7413    1.1260    3.3358 O   0  0  0  0  0
    3.4763    1.4827    2.1906 C   0  0  0  0  0
    2.2205    2.0102    1.8636 N   0  0  0  0  0
    1.6711    2.0261    0.5142 C   0  0  0  0  0
    1.2372    2.0575    2.9359 C   0  0  0  0  0
    4.3627    1.4212    1.1359 N   0  0  0  0  0
    5.6584    0.8604    1.1392 C   0  0  0  0  0
    6.1550    0.0520    2.1634 C   0  0  0  0  0
    7.4579   -0.4573    2.1009 C   0  0  0  0  0
    8.2754   -0.1702    1.0077 C   0  0  0  0  0
    7.7807    0.6221   -0.0311 C   0  0  0  0  0
    8.7244    1.0182   -1.4247 Cl  0  0  0  0  0
    9.8742   -0.8217    0.9998 Cl  0  0  0  0  0
    6.4764    1.1296    0.0347 C   0  0  0  0  0
    2.3728    2.4620   -0.1993 H   0  0  0  0  0
    0.7571    2.6275    0.4909 H   0  0  0  0  0
    1.4444    0.9983    0.2159 H   0  0  0  0  0
    1.7118    2.1875    3.9129 H   0  0  0  0  0
    0.6690    1.1224    2.9360 H   0  0  0  0  0
    0.5617    2.9020    2.7694 H   0  0  0  0  0
    4.1472    2.0161    0.3543 H   0  0  0  0  0
    5.5519   -0.2061    3.0295 H   0  0  0  0  0
    7.8240   -1.0767    2.9165 H   0  0  0  0  0
    6.1100    1.7464   -0.7820 H   0  0  0  0  0
  1  2  2  0  0  0
  2  6  1  0  0  0
  2  3  1  0  0  0
  3  5  1  0  0  0
  3  4  1  0  0  0
  4 15  1  0  0  0
  4 16  1  0  0  0
  4 17  1  0  0  0
  5 18  1  0  0  0
  5 19  1  0  0  0
  5 20  1  0  0  0
  6  7  1  0  0  0
  6 21  1  0  0  0
  7  8  2  0  0  0
  7 14  1  0  0  0
  8  9  1  0  0  0
  8 22  1  0  0  0
  9 10  2  0  0  0
  9 23  1  0  0  0
 10 11  1  0  0  0
 10 13  1  0  0  0
 11 14  2  0  0  0
 11 12  1  0  0  0
 14 24  1  0  0  0
M  END