242
 OpenBabel11300911193D

 23 24  0  0  0  0  0  0  0  0999 V2000
   -0.9942   -2.7660    0.3972 F   0  0  0  0  0
    0.2912   -2.5860    0.0637 C   0  0  0  0  0
    0.7285   -2.9643   -1.2010 C   0  0  0  0  0
    2.0683   -2.7826   -1.5496 C   0  0  0  0  0
    2.9531   -2.2027   -0.6334 C   0  0  0  0  0
    4.2964   -2.0154   -0.8774 O   0  0  0  0  0
    4.6809   -1.6964   -2.1584 C   0  0  0  0  0
    4.1415   -0.6065   -2.8488 C   0  0  0  0  0
    4.5924   -0.3155   -4.1369 C   0  0  0  0  0
    5.5889   -1.1004   -4.7084 C   0  0  0  0  0
    6.0202   -0.8194   -5.9454 F   0  0  0  0  0
    6.1510   -2.1674   -4.0144 C   0  0  0  0  0
    5.7002   -2.4627   -2.7279 C   0  0  0  0  0
    2.5058   -1.8456    0.6424 C   0  0  0  0  0
    1.1671   -2.0334    0.9903 C   0  0  0  0  0
    0.0277   -3.4047   -1.9030 H   0  0  0  0  0
    2.4076   -3.1037   -2.5312 H   0  0  0  0  0
    3.3761    0.0149   -2.3917 H   0  0  0  0  0
    4.1793    0.5193   -4.6950 H   0  0  0  0  0
    6.9351   -2.7571   -4.4772 H   0  0  0  0  0
    6.1359   -3.2888   -2.1728 H   0  0  0  0  0
    3.1998   -1.4211    1.3626 H   0  0  0  0  0
    0.8055   -1.7570    1.9757 H   0  0  0  0  0
  1  2  1  0  0  0
  2  3  2  0  0  0
  2 15  1  0  0  0
  3  4  1  0  0  0
  3 16  1  0  0  0
  4  5  2  0  0  0
  4 17  1  0  0  0
  5 14  1  0  0  0
  5  6  1  0  0  0
  6  7  1  0  0  0
  7  8  2  0  0  0
  7 13  1  0  0  0
  8  9  1  0  0  0
  8 18  1  0  0  0
  9 10  2  0  0  0
  9 19  1  0  0  0
 10 12  1  0  0  0
 10 11  1  0  0  0
 12 13  2  0  0  0
 12 20  1  0  0  0
 13 21  1  0  0  0
 14 15  2  0  0  0
 14 22  1  0  0  0
 15 23  1  0  0  0
M  END