243
 OpenBabel11300911563D

 40 40  0  0  0  0  0  0  0  0999 V2000
   -0.8780   -2.8638    0.7482 O   0  0  0  0  0
    0.5280   -3.6289    1.0384 P   0  0  0  0  0
    0.9455   -4.0894   -0.4604 O   0  0  0  0  0
    0.1377   -5.0522   -1.1178 C   0  0  0  0  0
    0.6421   -5.2203   -2.5377 C   0  0  0  0  0
    1.4981   -2.3721    1.3274 O   0  0  0  0  0
    2.8471   -2.5126    1.5198 C   0  0  0  0  0
    3.3710   -3.7405    1.5454 N   0  0  0  0  0
    4.6931   -3.8198    1.7828 C   0  0  0  0  0
    5.4914   -2.7517    1.9770 N   0  0  0  0  0
    4.9209   -1.5318    1.9352 C   0  0  0  0  0
    5.8083   -0.3450    2.1612 C   0  0  0  0  0
    5.3249   -5.1858    1.9401 C   0  0  0  0  0
    5.2755   -5.6118    3.4083 C   0  0  0  0  0
    4.6757   -6.2431    1.0472 C   0  0  0  0  0
    3.5740   -1.3609    1.7052 C   0  0  0  0  0
    0.3272   -5.0001    2.3998 S   0  0  0  0  0
   -0.9188   -1.7736   -0.1550 C   0  0  0  0  0
   -2.3548   -1.2992   -0.2559 C   0  0  0  0  0
   -0.9028   -4.7158   -1.1338 H   0  0  0  0  0
    0.1948   -6.0079   -0.5891 H   0  0  0  0  0
    0.6384   -4.2610   -3.0669 H   0  0  0  0  0
    0.0211   -5.9311   -3.0906 H   0  0  0  0  0
    1.6762   -5.5810   -2.5383 H   0  0  0  0  0
    6.8318   -0.6612    2.3879 H   0  0  0  0  0
    5.4420    0.2473    3.0056 H   0  0  0  0  0
    5.8346    0.2831    1.2654 H   0  0  0  0  0
    6.3785   -5.1033    1.6435 H   0  0  0  0  0
    4.2437   -5.6918    3.7695 H   0  0  0  0  0
    5.7938   -4.8868    4.0464 H   0  0  0  0  0
    5.7603   -6.5843    3.5482 H   0  0  0  0  0
    3.6272   -6.4129    1.3142 H   0  0  0  0  0
    5.2011   -7.1996    1.1391 H   0  0  0  0  0
    4.7091   -5.9403   -0.0048 H   0  0  0  0  0
    3.1101   -0.3852    1.6820 H   0  0  0  0  0
   -0.5599   -2.0878   -1.1390 H   0  0  0  0  0
   -0.2859   -0.9613    0.2132 H   0  0  0  0  0
   -3.0078   -2.1124   -0.5902 H   0  0  0  0  0
   -2.4434   -0.4636   -0.9554 H   0  0  0  0  0
   -2.7236   -0.9791    0.7247 H   0  0  0  0  0
  1 18  1  0  0  0
  1  2  1  0  0  0
  2 17  2  0  0  0
  2  6  1  0  0  0
  2  3  1  0  0  0
  3  4  1  0  0  0
  4  5  1  0  0  0
  4 20  1  0  0  0
  4 21  1  0  0  0
  5 22  1  0  0  0
  5 23  1  0  0  0
  5 24  1  0  0  0
  6  7  1  0  0  0
  7  8  2  0  0  0
  7 16  1  0  0  0
  8  9  1  0  0  0
  9 10  2  0  0  0
  9 13  1  0  0  0
 10 11  1  0  0  0
 11 16  2  0  0  0
 11 12  1  0  0  0
 12 25  1  0  0  0
 12 26  1  0  0  0
 12 27  1  0  0  0
 13 15  1  0  0  0
 13 14  1  0  0  0
 13 28  1  0  0  0
 14 29  1  0  0  0
 14 30  1  0  0  0
 14 31  1  0  0  0
 15 32  1  0  0  0
 15 33  1  0  0  0
 15 34  1  0  0  0
 16 35  1  0  0  0
 18 19  1  0  0  0
 18 36  1  0  0  0
 18 37  1  0  0  0
 19 38  1  0  0  0
 19 39  1  0  0  0
 19 40  1  0  0  0
M  END