244
 OpenBabel11300911193D

 14 14  0  0  0  0  0  0  0  0999 V2000
    0.9569   -0.0209    0.4243 O   0  0  0  0  0
    2.1486   -0.0484    0.0863 N   0  0  0  0  0
    2.7836   -1.0805   -0.1720 O   0  0  0  0  0
    2.8591    1.2333   -0.0157 C   0  0  0  0  0
    2.1789    2.4291    0.2631 C   0  0  0  0  0
    2.8600    3.6445    0.1643 C   0  0  0  0  0
    4.2015    3.6551   -0.2083 C   0  0  0  0  0
    4.8489    4.8232   -0.3012 F   0  0  0  0  0
    4.8815    2.4724   -0.4861 C   0  0  0  0  0
    4.2116    1.2504   -0.3910 C   0  0  0  0  0
    1.1305    2.4300    0.5550 H   0  0  0  0  0
    2.3550    4.5828    0.3751 H   0  0  0  0  0
    5.9280    2.5109   -0.7745 H   0  0  0  0  0
    4.7509    0.3308   -0.6098 H   0  0  0  0  0
  1  2  2  0  0  0
  2  4  1  0  0  0
  2  3  2  0  0  0
  4  5  2  0  0  0
  4 10  1  0  0  0
  5  6  1  0  0  0
  5 11  1  0  0  0
  6  7  2  0  0  0
  6 12  1  0  0  0
  7  9  1  0  0  0
  7  8  1  0  0  0
  9 10  2  0  0  0
  9 13  1  0  0  0
 10 14  1  0  0  0
M  END