245
 OpenBabel11300911203D

 16 16  0  0  0  0  0  0  0  0999 V2000
    1.0689   -0.1242    0.5354 F   0  0  0  0  0
    2.3442   -0.0283    0.0686 C   0  0  0  0  0
    3.1080   -0.7807    0.9074 F   0  0  0  0  0
    2.3548   -0.6744   -1.1294 F   0  0  0  0  0
    2.8432    1.3925   -0.0423 C   0  0  0  0  0
    2.0191    2.4805    0.2840 C   0  0  0  0  0
    2.4938    3.7889    0.1748 C   0  0  0  0  0
    3.7975    4.0256   -0.2623 C   0  0  0  0  0
    4.6321    2.9539   -0.5924 C   0  0  0  0  0
    5.9720    3.1981   -1.0421 C   0  0  0  0  0
    7.0567    3.3945   -1.4062 N   0  0  0  0  0
    4.1550    1.6422   -0.4825 C   0  0  0  0  0
    0.9980    2.3135    0.6267 H   0  0  0  0  0
    1.8462    4.6251    0.4309 H   0  0  0  0  0
    4.1561    5.0506   -0.3434 H   0  0  0  0  0
    4.8042    0.8042   -0.7397 H   0  0  0  0  0
  1  2  1  0  0  0
  2  5  1  0  0  0
  2  4  1  0  0  0
  2  3  1  0  0  0
  5  6  2  0  0  0
  5 12  1  0  0  0
  6  7  1  0  0  0
  6 13  1  0  0  0
  7  8  2  0  0  0
  7 14  1  0  0  0
  8  9  1  0  0  0
  8 15  1  0  0  0
  9 12  2  0  0  0
  9 10  1  0  0  0
 10 11  3  0  0  0
 12 16  1  0  0  0
M  END