247
 OpenBabel11300911203D

 14 14  0  0  0  0  0  0  0  0999 V2000
    2.6661   -1.1787    0.1379 O   0  0  0  0  0
    2.1676   -0.0845   -0.0938 C   0  0  0  0  0
    2.9093    1.1875    0.0359 C   0  0  0  0  0
    2.3017    2.4197   -0.2381 C   0  0  0  0  0
    3.0307    3.6102   -0.1061 C   0  0  0  0  0
    4.3651    3.5808    0.2982 C   0  0  0  0  0
    4.9726    2.3592    0.5714 C   0  0  0  0  0
    0.6554    2.5681   -0.7452 Cl  0  0  0  0  0
    4.2473    1.1747    0.4401 C   0  0  0  0  0
    4.8853    0.0291    0.7168 F   0  0  0  0  0
    1.1167   -0.0280   -0.4155 H   0  0  0  0  0
    2.5612    4.5693   -0.3184 H   0  0  0  0  0
    4.9277    4.5061    0.3996 H   0  0  0  0  0
    6.0113    2.3143    0.8878 H   0  0  0  0  0
  1  2  2  0  0  0
  2  3  1  0  0  0
  2 11  1  0  0  0
  3  4  2  0  0  0
  3  9  1  0  0  0
  4  5  1  0  0  0
  4  8  1  0  0  0
  5  6  2  0  0  0
  5 12  1  0  0  0
  6  7  1  0  0  0
  6 13  1  0  0  0
  7  9  2  0  0  0
  7 14  1  0  0  0
  9 10  1  0  0  0
M  END