249
 OpenBabel11300911203D

 14 14  0  0  0  0  0  0  0  0999 V2000
    0.9524    0.0801    0.0495 F   0  0  0  0  0
    2.2907    0.0607   -0.0322 C   0  0  0  0  0
    2.9798    1.2699   -0.0678 C   0  0  0  0  0
    4.3730    1.2691   -0.1529 C   0  0  0  0  0
    5.0704    0.0594   -0.2019 C   0  0  0  0  0
    4.3763   -1.1522   -0.1660 C   0  0  0  0  0
    2.9807   -1.1470   -0.0808 C   0  0  0  0  0
    2.2242   -2.4081   -0.0413 C   0  0  0  0  0
    2.7856   -3.4969   -0.0814 O   0  0  0  0  0
    2.4286    2.2047   -0.0292 H   0  0  0  0  0
    4.9168    2.2107   -0.1810 H   0  0  0  0  0
    6.1564    0.0596   -0.2681 H   0  0  0  0  0
    4.9214   -2.0932   -0.2042 H   0  0  0  0  0
    1.1261   -2.3310    0.0261 H   0  0  0  0  0
  1  2  1  0  0  0
  2  3  2  0  0  0
  2  7  1  0  0  0
  3  4  1  0  0  0
  3 10  1  0  0  0
  4  5  2  0  0  0
  4 11  1  0  0  0
  5  6  1  0  0  0
  5 12  1  0  0  0
  6  7  2  0  0  0
  6 13  1  0  0  0
  7  8  1  0  0  0
  8  9  2  0  0  0
  8 14  1  0  0  0
M  END