250
 OpenBabel11300911563D

 16 16  0  0  0  0  0  0  0  0999 V2000
    0.9915   -0.1103    0.4534 F   0  0  0  0  0
    2.2906   -0.0179    0.0512 C   0  0  0  0  0
    3.0027   -0.7665    0.9351 F   0  0  0  0  0
    2.3521   -0.6655   -1.1428 F   0  0  0  0  0
    2.7878    1.4044   -0.0354 C   0  0  0  0  0
    1.9316    2.4743    0.2844 C   0  0  0  0  0
    2.3792    3.7939    0.2083 C   0  0  0  0  0
    3.6858    4.0650   -0.1874 C   0  0  0  0  0
    4.5478    3.0163   -0.5079 C   0  0  0  0  0
    4.1074    1.6863   -0.4346 C   0  0  0  0  0
    5.0299    0.6399   -0.7739 C   0  0  0  0  0
    5.7812   -0.2013   -1.0498 N   0  0  0  0  0
    0.9047    2.2832    0.5963 H   0  0  0  0  0
    1.7066    4.6119    0.4584 H   0  0  0  0  0
    4.0342    5.0939   -0.2465 H   0  0  0  0  0
    5.5679    3.2434   -0.8160 H   0  0  0  0  0
  1  2  1  0  0  0
  2  5  1  0  0  0
  2  4  1  0  0  0
  2  3  1  0  0  0
  5  6  2  0  0  0
  5 10  1  0  0  0
  6  7  1  0  0  0
  6 13  1  0  0  0
  7  8  2  0  0  0
  7 14  1  0  0  0
  8  9  1  0  0  0
  8 15  1  0  0  0
  9 10  2  0  0  0
  9 16  1  0  0  0
 10 11  1  0  0  0
 11 12  3  0  0  0
M  END