252
 OpenBabel11300911203D

 17 17  0  0  0  0  0  0  0  0999 V2000
    3.1638   -1.1575    0.5936 C   0  0  0  0  0
    2.4620    0.0853    0.3281 N   0  0  0  0  0
    3.1854    1.2726    0.1830 C   0  0  0  0  0
    2.4874    2.4904    0.2499 C   0  0  0  0  0
    3.1347    3.7117    0.0430 C   0  0  0  0  0
    4.4870    3.7220   -0.2622 C   0  0  0  0  0
    5.1119    4.8890   -0.4654 F   0  0  0  0  0
    5.1960    2.5351   -0.3754 C   0  0  0  0  0
    4.5418    1.3159   -0.1677 C   0  0  0  0  0
    2.4317   -1.9531    0.7649 H   0  0  0  0  0
    3.7886   -1.0792    1.4894 H   0  0  0  0  0
    3.7775   -1.4609   -0.2604 H   0  0  0  0  0
    1.6408    0.2082    0.9156 H   0  0  0  0  0
    1.4212    2.4949    0.4629 H   0  0  0  0  0
    2.5884    4.6467    0.1076 H   0  0  0  0  0
    6.2490    2.5603   -0.6357 H   0  0  0  0  0
    5.1170    0.4036   -0.2902 H   0  0  0  0  0
  1  2  1  0  0  0
  1 10  1  0  0  0
  1 11  1  0  0  0
  1 12  1  0  0  0
  2  3  1  0  0  0
  2 13  1  0  0  0
  3  4  2  0  0  0
  3  9  1  0  0  0
  4  5  1  0  0  0
  4 14  1  0  0  0
  5  6  2  0  0  0
  5 15  1  0  0  0
  6  8  1  0  0  0
  6  7  1  0  0  0
  8  9  2  0  0  0
  8 16  1  0  0  0
  9 17  1  0  0  0
M  END