253
 OpenBabel11300911203D

 29 30  0  0  0  0  0  0  0  0999 V2000
    0.6928    1.3114   -0.2789 O   0  0  0  0  0
    1.2201   -0.0010    0.0012 C   0  0  0  0  0
    0.7184   -0.4405    1.3899 C   0  0  0  0  0
   -0.8115   -0.5384    1.3802 C   0  0  0  0  0
   -1.3371   -0.0453    0.0183 C   0  0  0  0  0
   -0.8189   -1.0517   -1.0276 C   0  0  0  0  0
    0.7107   -0.9704   -1.0834 C   0  0  0  0  0
    2.7413    0.0997   -0.0251 C   0  0  0  0  0
   -0.7503    1.3643   -0.2840 C   0  0  0  0  0
   -1.1696    2.4042    0.7664 C   0  0  0  0  0
   -1.1801    1.8875   -1.6631 C   0  0  0  0  0
    1.1525   -1.4045    1.6808 H   0  0  0  0  0
    1.0191    0.2938    2.1474 H   0  0  0  0  0
   -1.1193   -1.5771    1.5546 H   0  0  0  0  0
   -1.2370    0.0409    2.2066 H   0  0  0  0  0
   -2.4327   -0.0315    0.0186 H   0  0  0  0  0
   -1.2483   -0.8576   -2.0162 H   0  0  0  0  0
   -1.1282   -2.0703   -0.7627 H   0  0  0  0  0
    1.1432   -1.9698   -0.9549 H   0  0  0  0  0
    1.0083   -0.6121   -2.0769 H   0  0  0  0  0
    3.0961    0.8253    0.7155 H   0  0  0  0  0
    3.0913    0.4562   -1.0005 H   0  0  0  0  0
    3.2137   -0.8663    0.1813 H   0  0  0  0  0
   -0.7383    2.1905    1.7491 H   0  0  0  0  0
   -2.2586    2.4587    0.8626 H   0  0  0  0  0
   -0.7976    3.4002    0.4976 H   0  0  0  0  0
   -0.7566    1.2913   -2.4774 H   0  0  0  0  0
   -0.8075    2.9059   -1.8261 H   0  0  0  0  0
   -2.2699    1.9000   -1.7641 H   0  0  0  0  0
  1  9  1  0  0  0
  1  2  1  0  0  0
  2  3  1  0  0  0
  2  7  1  0  0  0
  2  8  1  0  0  0
  3  4  1  0  0  0
  3 12  1  0  0  0
  3 13  1  0  0  0
  4  5  1  0  0  0
  4 14  1  0  0  0
  4 15  1  0  0  0
  5  9  1  0  0  0
  5  6  1  0  0  0
  5 16  1  0  0  0
  6  7  1  0  0  0
  6 17  1  0  0  0
  6 18  1  0  0  0
  7 19  1  0  0  0
  7 20  1  0  0  0
  8 21  1  0  0  0
  8 22  1  0  0  0
  8 23  1  0  0  0
  9 11  1  0  0  0
  9 10  1  0  0  0
 10 24  1  0  0  0
 10 25  1  0  0  0
 10 26  1  0  0  0
 11 27  1  0  0  0
 11 28  1  0  0  0
 11 29  1  0  0  0
M  END