256
 OpenBabel11300911203D

 28 27  0  0  0  0  0  0  0  0999 V2000
    0.9846    0.4254   -0.3394 O   0  0  0  0  0
    1.9921    0.3944    0.3669 C   0  0  0  0  0
    2.5842   -0.9024    0.8945 C   0  0  0  0  0
    1.7154   -2.1150    0.5667 C   0  0  0  0  0
    2.3291   -3.4038    1.1126 C   0  0  0  0  0
    1.4589   -4.6112    0.8006 C   0  0  0  0  0
    2.7360    1.6692    0.7100 C   0  0  0  0  0
    3.7804    1.9869   -0.3531 C   0  0  0  0  0
    4.5187    3.2857   -0.0342 C   0  0  0  0  0
    5.5527    3.6182   -1.0975 C   0  0  0  0  0
    2.6888   -0.8075    1.9812 H   0  0  0  0  0
    3.5802   -1.0247    0.4566 H   0  0  0  0  0
    1.5913   -2.1983   -0.5201 H   0  0  0  0  0
    0.7129   -1.9750    0.9888 H   0  0  0  0  0
    2.4585   -3.3250    2.1986 H   0  0  0  0  0
    3.3242   -3.5552    0.6775 H   0  0  0  0  0
    0.4709   -4.5108    1.2605 H   0  0  0  0  0
    1.9230   -5.5229    1.1886 H   0  0  0  0  0
    1.3255   -4.7303   -0.2789 H   0  0  0  0  0
    3.1960    1.5598    1.6982 H   0  0  0  0  0
    2.0008    2.4788    0.7896 H   0  0  0  0  0
    3.2955    2.0672   -1.3339 H   0  0  0  0  0
    4.4993    1.1620   -0.4274 H   0  0  0  0  0
    5.0174    3.2008    0.9391 H   0  0  0  0  0
    3.8021    4.1133    0.0410 H   0  0  0  0  0
    6.2998    2.8226   -1.1802 H   0  0  0  0  0
    6.0721    4.5472   -0.8436 H   0  0  0  0  0
    5.0800    3.7497   -2.0757 H   0  0  0  0  0
  1  2  2  0  0  0
  2  7  1  0  0  0
  2  3  1  0  0  0
  3  4  1  0  0  0
  3 11  1  0  0  0
  3 12  1  0  0  0
  4  5  1  0  0  0
  4 13  1  0  0  0
  4 14  1  0  0  0
  5  6  1  0  0  0
  5 15  1  0  0  0
  5 16  1  0  0  0
  6 17  1  0  0  0
  6 18  1  0  0  0
  6 19  1  0  0  0
  7  8  1  0  0  0
  7 20  1  0  0  0
  7 21  1  0  0  0
  8  9  1  0  0  0
  8 22  1  0  0  0
  8 23  1  0  0  0
  9 10  1  0  0  0
  9 24  1  0  0  0
  9 25  1  0  0  0
 10 26  1  0  0  0
 10 27  1  0  0  0
 10 28  1  0  0  0
M  END