257
 OpenBabel11300911203D

 16 15  0  0  0  0  0  0  0  0999 V2000
    0.9741    0.0269   -0.0331 C   0  0  0  0  0
    0.2861   -1.2730   -0.0808 C   0  0  0  0  0
    0.7671   -2.3733    0.5266 C   0  0  0  0  0
   -0.9975   -1.3825   -0.8690 C   0  0  0  0  0
    0.3826    1.1772   -0.4040 C   0  0  0  0  0
    2.4141    0.0662    0.4234 C   0  0  0  0  0
    1.6802   -2.3767    1.1109 H   0  0  0  0  0
    0.2433   -3.3230    0.4683 H   0  0  0  0  0
   -0.8533   -1.0315   -1.8971 H   0  0  0  0  0
   -1.7948   -0.7962   -0.3999 H   0  0  0  0  0
   -1.3542   -2.4168   -0.9343 H   0  0  0  0  0
    0.9166    2.1226   -0.3668 H   0  0  0  0  0
   -0.6459    1.2325   -0.7422 H   0  0  0  0  0
    2.8567    1.0616    0.3039 H   0  0  0  0  0
    3.0266   -0.6260   -0.1649 H   0  0  0  0  0
    2.4945   -0.1970    1.4832 H   0  0  0  0  0
  1  6  1  0  0  0
  1  5  2  0  0  0
  1  2  1  0  0  0
  2  4  1  0  0  0
  2  3  2  0  0  0
  3  7  1  0  0  0
  3  8  1  0  0  0
  4  9  1  0  0  0
  4 10  1  0  0  0
  4 11  1  0  0  0
  5 12  1  0  0  0
  5 13  1  0  0  0
  6 14  1  0  0  0
  6 15  1  0  0  0
  6 16  1  0  0  0
M  END