263
 OpenBabel11300911563D

 27 27  0  0  0  0  0  0  0  0999 V2000
   -1.2631    0.0816   -0.0698 C   0  0  0  0  0
   -0.6300    0.1138    1.1801 C   0  0  0  0  0
    0.7562    0.2496    1.2675 C   0  0  0  0  0
    1.5215    0.3591    0.1080 C   0  0  0  0  0
    0.9014    0.3339   -1.1399 C   0  0  0  0  0
   -0.4850    0.1980   -1.2293 C   0  0  0  0  0
   -2.7637   -0.0378   -0.1638 C   0  0  0  0  0
   -3.4361    1.3369   -0.1718 C   0  0  0  0  0
   -4.9585    1.2122   -0.2480 C   0  0  0  0  0
   -5.6252    2.5875   -0.2719 C   0  0  0  0  0
   -7.1397    2.4728   -0.3358 C   0  0  0  0  0
   -1.2153    0.0358    2.0933 H   0  0  0  0  0
    1.2385    0.2728    2.2411 H   0  0  0  0  0
    2.6006    0.4668    0.1770 H   0  0  0  0  0
    1.4972    0.4229   -2.0443 H   0  0  0  0  0
   -0.9558    0.1863   -2.2095 H   0  0  0  0  0
   -3.1348   -0.6371    0.6773 H   0  0  0  0  0
   -3.0284   -0.5950   -1.0714 H   0  0  0  0  0
   -3.0725    1.9234   -1.0252 H   0  0  0  0  0
   -3.1595    1.8922    0.7332 H   0  0  0  0  0
   -5.3238    0.6409    0.6141 H   0  0  0  0  0
   -5.2378    0.6525   -1.1489 H   0  0  0  0  0
   -5.2711    3.1572   -1.1389 H   0  0  0  0  0
   -5.3452    3.1532    0.6243 H   0  0  0  0  0
   -7.4552    1.9352   -1.2357 H   0  0  0  0  0
   -7.5942    3.4683   -0.3578 H   0  0  0  0  0
   -7.5299    1.9406    0.5377 H   0  0  0  0  0
  1  2  2  0  0  0
  1  6  1  0  0  0
  1  7  1  0  0  0
  2  3  1  0  0  0
  2 12  1  0  0  0
  3  4  2  0  0  0
  3 13  1  0  0  0
  4  5  1  0  0  0
  4 14  1  0  0  0
  5  6  2  0  0  0
  5 15  1  0  0  0
  6 16  1  0  0  0
  7  8  1  0  0  0
  7 17  1  0  0  0
  7 18  1  0  0  0
  8  9  1  0  0  0
  8 19  1  0  0  0
  8 20  1  0  0  0
  9 10  1  0  0  0
  9 21  1  0  0  0
  9 22  1  0  0  0
 10 11  1  0  0  0
 10 23  1  0  0  0
 10 24  1  0  0  0
 11 25  1  0  0  0
 11 26  1  0  0  0
 11 27  1  0  0  0
M  END