274
 OpenBabel11300911563D

 16 15  0  0  0  0  0  0  0  0999 V2000
    2.7957    2.6259    1.2730 O   0  0  0  0  0
    2.6397    2.6047    0.0567 C   0  0  0  0  0
    3.4918    1.8168   -0.9122 C   0  0  0  0  0
    4.7431    1.1937   -0.2796 C   0  0  0  0  0
    5.3436    0.1508   -1.2243 C   0  0  0  0  0
    5.7938    2.2582    0.0475 C   0  0  0  0  0
    1.8051    3.1593   -0.4065 H   0  0  0  0  0
    3.7681    2.4865   -1.7348 H   0  0  0  0  0
    2.8429    1.0352   -1.3242 H   0  0  0  0  0
    4.4671    0.6857    0.6530 H   0  0  0  0  0
    5.6356    0.6006   -2.1795 H   0  0  0  0  0
    4.6228   -0.6473   -1.4315 H   0  0  0  0  0
    6.2324   -0.3105   -0.7810 H   0  0  0  0  0
    6.1082    2.7957   -0.8535 H   0  0  0  0  0
    6.6828    1.7994    0.4931 H   0  0  0  0  0
    5.4096    2.9927    0.7616 H   0  0  0  0  0
  1  2  2  0  0  0
  2  3  1  0  0  0
  2  7  1  0  0  0
  3  4  1  0  0  0
  3  8  1  0  0  0
  3  9  1  0  0  0
  4  6  1  0  0  0
  4  5  1  0  0  0
  4 10  1  0  0  0
  5 11  1  0  0  0
  5 12  1  0  0  0
  5 13  1  0  0  0
  6 14  1  0  0  0
  6 15  1  0  0  0
  6 16  1  0  0  0
M  END