276
 OpenBabel11300911203D

 16 15  0  0  0  0  0  0  0  0999 V2000
    0.8252    0.0579   -0.1468 C   0  0  0  0  0
    2.3155    0.0158   -0.2436 C   0  0  0  0  0
    3.1290    0.8640    0.4036 C   0  0  0  0  0
    4.5671    0.8045    0.2950 C   0  0  0  0  0
    5.3813    1.6523    0.9416 C   0  0  0  0  0
    6.8717    1.6094    0.8442 C   0  0  0  0  0
    0.4506   -0.8933    0.2433 H   0  0  0  0  0
    0.3922    0.2177   -1.1390 H   0  0  0  0  0
    0.4745    0.8588    0.5117 H   0  0  0  0  0
    2.7299   -0.7594   -0.8840 H   0  0  0  0  0
    2.7054    1.6366    1.0422 H   0  0  0  0  0
    4.9902    0.0318   -0.3438 H   0  0  0  0  0
    4.9678    2.4278    1.5822 H   0  0  0  0  0
    7.2217    0.8079    0.1859 H   0  0  0  0  0
    7.3051    1.4500    1.8362 H   0  0  0  0  0
    7.2467    2.5602    0.4533 H   0  0  0  0  0
  1  2  1  0  0  0
  1  7  1  0  0  0
  1  8  1  0  0  0
  1  9  1  0  0  0
  2  3  2  0  0  0
  2 10  1  0  0  0
  3  4  1  0  0  0
  3 11  1  0  0  0
  4  5  2  0  0  0
  4 12  1  0  0  0
  5  6  1  0  0  0
  5 13  1  0  0  0
  6 14  1  0  0  0
  6 15  1  0  0  0
  6 16  1  0  0  0
M  END