277
 OpenBabel11300911563D

 40 39  0  0  0  0  0  0  0  0999 V2000
    1.9058    0.6434    1.0989 O   0  0  0  0  0
    2.2130    0.1102    0.0332 C   0  0  0  0  0
    2.9693   -1.1997   -0.0036 C   0  0  0  0  0
    2.0027   -2.3779    0.0155 C   0  0  0  0  0
    2.7495   -3.7115   -0.0096 C   0  0  0  0  0
    1.7777   -4.8924    0.0105 C   0  0  0  0  0
    2.5217   -6.2292   -0.0108 C   0  0  0  0  0
    1.5451   -7.4064   -0.0057 C   0  0  0  0  0
    2.2829   -8.7461   -0.0139 C   0  0  0  0  0
    1.2999   -9.9182   -0.0283 C   0  0  0  0  0
    2.0304  -11.2621   -0.0217 C   0  0  0  0  0
    1.0435  -12.4288   -0.0575 C   0  0  0  0  0
    1.7619  -13.7684   -0.0400 C   0  0  0  0  0
    1.8142    0.7113   -1.2892 C   0  0  0  0  0
    3.6395   -1.2299    0.8633 H   0  0  0  0  0
    3.6024   -1.2198   -0.8972 H   0  0  0  0  0
    1.3251   -2.3169   -0.8454 H   0  0  0  0  0
    1.3726   -2.3219    0.9121 H   0  0  0  0  0
    3.4210   -3.7732    0.8552 H   0  0  0  0  0
    3.3742   -3.7655   -0.9093 H   0  0  0  0  0
    1.1078   -4.8312   -0.8560 H   0  0  0  0  0
    1.1502   -4.8367    0.9085 H   0  0  0  0  0
    3.1833   -6.2953    0.8615 H   0  0  0  0  0
    3.1566   -6.2826   -0.9035 H   0  0  0  0  0
    0.8901   -7.3422   -0.8831 H   0  0  0  0  0
    0.9032   -7.3471    0.8817 H   0  0  0  0  0
    2.9272   -8.8164    0.8708 H   0  0  0  0  0
    2.9343   -8.8027   -0.8944 H   0  0  0  0  0
    0.6629   -9.8509   -0.9187 H   0  0  0  0  0
    0.6405   -9.8557    0.8461 H   0  0  0  0  0
    2.6557  -11.3357    0.8766 H   0  0  0  0  0
    2.7009  -11.3211   -0.8879 H   0  0  0  0  0
    0.4251  -12.3648   -0.9601 H   0  0  0  0  0
    0.3679  -12.3723    0.8035 H   0  0  0  0  0
    2.4276  -13.8687   -0.9035 H   0  0  0  0  0
    1.0368  -14.5877   -0.0734 H   0  0  0  0  0
    2.3599  -13.8811    0.8702 H   0  0  0  0  0
    1.2768    1.6482   -1.1199 H   0  0  0  0  0
    1.1607    0.0215   -1.8278 H   0  0  0  0  0
    2.7094    0.9222   -1.8797 H   0  0  0  0  0
  1  2  2  0  0  0
  2 14  1  0  0  0
  2  3  1  0  0  0
  3  4  1  0  0  0
  3 15  1  0  0  0
  3 16  1  0  0  0
  4  5  1  0  0  0
  4 17  1  0  0  0
  4 18  1  0  0  0
  5  6  1  0  0  0
  5 19  1  0  0  0
  5 20  1  0  0  0
  6  7  1  0  0  0
  6 21  1  0  0  0
  6 22  1  0  0  0
  7  8  1  0  0  0
  7 23  1  0  0  0
  7 24  1  0  0  0
  8  9  1  0  0  0
  8 25  1  0  0  0
  8 26  1  0  0  0
  9 10  1  0  0  0
  9 27  1  0  0  0
  9 28  1  0  0  0
 10 11  1  0  0  0
 10 29  1  0  0  0
 10 30  1  0  0  0
 11 12  1  0  0  0
 11 31  1  0  0  0
 11 32  1  0  0  0
 12 13  1  0  0  0
 12 33  1  0  0  0
 12 34  1  0  0  0
 13 35  1  0  0  0
 13 36  1  0  0  0
 13 37  1  0  0  0
 14 38  1  0  0  0
 14 39  1  0  0  0
 14 40  1  0  0  0
M  END