278
 OpenBabel11300911573D

 19 18  0  0  0  0  0  0  0  0999 V2000
    0.9838   -0.0471    0.0517 N   0  0  0  0  0
    2.4512   -0.0142    0.0517 C   0  0  0  0  0
    2.9318   -0.8422   -1.1435 C   0  0  0  0  0
    2.9747    1.4465    0.0207 C   0  0  0  0  0
    2.4962    2.2576    1.2333 C   0  0  0  0  0
    4.5064    1.5058   -0.0312 C   0  0  0  0  0
    0.6283    0.3634    0.9137 H   0  0  0  0  0
    0.6613   -1.0145    0.0514 H   0  0  0  0  0
    2.8009   -0.5042    0.9692 H   0  0  0  0  0
    2.6727   -0.3622   -2.0936 H   0  0  0  0  0
    2.4833   -1.8427   -1.1377 H   0  0  0  0  0
    4.0159   -0.9867   -1.1163 H   0  0  0  0  0
    2.5942    1.9426   -0.8820 H   0  0  0  0  0
    2.7886    1.7751    2.1724 H   0  0  0  0  0
    1.4085    2.3787    1.2336 H   0  0  0  0  0
    2.9277    3.2650    1.2233 H   0  0  0  0  0
    4.9531    0.9528    0.8024 H   0  0  0  0  0
    4.8598    2.5418    0.0233 H   0  0  0  0  0
    4.8918    1.0891   -0.9668 H   0  0  0  0  0
  1  2  1  0  0  0
  1  7  1  0  0  0
  1  8  1  0  0  0
  2  4  1  0  0  0
  2  3  1  0  0  0
  2  9  1  0  0  0
  3 10  1  0  0  0
  3 11  1  0  0  0
  3 12  1  0  0  0
  4  6  1  0  0  0
  4  5  1  0  0  0
  4 13  1  0  0  0
  5 14  1  0  0  0
  5 15  1  0  0  0
  5 16  1  0  0  0
  6 17  1  0  0  0
  6 18  1  0  0  0
  6 19  1  0  0  0
M  END