280
 OpenBabel11300911573D

 26 27  0  0  0  0  0  0  0  0999 V2000
    3.9172    0.4908    1.0122 O   0  0  0  0  0
    3.3254    1.5193    0.7055 C   0  0  0  0  0
    3.7628    2.5966   -0.0702 N   0  0  0  0  0
    2.9399    3.7647   -0.1413 C   0  0  0  0  0
    2.6688    4.3859   -1.3706 C   0  0  0  0  0
    1.8538    5.5194   -1.4302 C   0  0  0  0  0
    1.2986    6.0426   -0.2644 C   0  0  0  0  0
    1.5478    5.4283    0.9607 C   0  0  0  0  0
    2.3546    4.2892    1.0211 C   0  0  0  0  0
    5.0285    2.5911   -0.7579 C   0  0  0  0  0
    5.6780    1.3917   -1.0885 C   0  0  0  0  0
    6.9265    1.3868   -1.7249 C   0  0  0  0  0
    7.5540    2.5847   -2.0468 C   0  0  0  0  0
    6.9370    3.7877   -1.7274 C   0  0  0  0  0
    5.6936    3.7891   -1.0845 C   0  0  0  0  0
    2.2890    1.6621    1.0641 H   0  0  0  0  0
    3.0705    3.9795   -2.2960 H   0  0  0  0  0
    1.6493    5.9904   -2.3887 H   0  0  0  0  0
    0.6707    6.9290   -0.3107 H   0  0  0  0  0
    1.1203    5.8396    1.8720 H   0  0  0  0  0
    2.5557    3.8481    1.9952 H   0  0  0  0  0
    5.2274    0.4261   -0.8745 H   0  0  0  0  0
    7.4053    0.4393   -1.9618 H   0  0  0  0  0
    8.5243    2.5792   -2.5351 H   0  0  0  0  0
    7.4261    4.7294   -1.9612 H   0  0  0  0  0
    5.2783    4.7563   -0.8115 H   0  0  0  0  0
  1  2  2  0  0  0
  2  3  1  0  0  0
  2 16  1  0  0  0
  3 10  1  0  0  0
  3  4  1  0  0  0
  4  5  2  0  0  0
  4  9  1  0  0  0
  5  6  1  0  0  0
  5 17  1  0  0  0
  6  7  2  0  0  0
  6 18  1  0  0  0
  7  8  1  0  0  0
  7 19  1  0  0  0
  8  9  2  0  0  0
  8 20  1  0  0  0
  9 21  1  0  0  0
 10 11  2  0  0  0
 10 15  1  0  0  0
 11 12  1  0  0  0
 11 22  1  0  0  0
 12 13  2  0  0  0
 12 23  1  0  0  0
 13 14  1  0  0  0
 13 24  1  0  0  0
 14 15  2  0  0  0
 14 25  1  0  0  0
 15 26  1  0  0  0
M  END