282
 OpenBabel11300911203D

 12 12  0  0  0  0  0  0  0  0999 V2000
   -0.6981    1.1958   -0.0004 C   0  0  0  0  0
   -1.4091   -0.0136    0.0000 C   0  0  0  0  0
   -0.7025   -1.2329    0.0003 C   0  0  0  0  0
    0.7068   -1.2334    0.0002 C   0  0  0  0  0
    1.3971   -0.0122   -0.0002 C   0  0  0  0  0
    3.1246    0.0841   -0.0004 Cl  0  0  0  0  0
    1.5948   -2.7279    0.0005 Cl  0  0  0  0  0
   -1.5729   -2.7427    0.0008 Cl  0  0  0  0  0
   -3.1477    0.0060    0.0001 Cl  0  0  0  0  0
    0.6971    1.1945   -0.0005 C   0  0  0  0  0
   -1.4803    2.7391   -0.0008 Cl  0  0  0  0  0
    1.2409    2.1379   -0.0008 H   0  0  0  0  0
  1  2  2  0  0  0
  1 10  1  0  0  0
  1 11  1  0  0  0
  2  3  1  0  0  0
  2  9  1  0  0  0
  3  4  2  0  0  0
  3  8  1  0  0  0
  4  5  1  0  0  0
  4  7  1  0  0  0
  5 10  2  0  0  0
  5  6  1  0  0  0
 10 12  1  0  0  0
M  END