284
 OpenBabel11300911573D

 22 22  0  0  0  0  0  0  0  0999 V2000
    0.9622    0.4490    0.4252 C   0  0  0  0  0
    2.3487    0.4210    0.1073 O   0  0  0  0  0
    2.9738    1.6283   -0.0487 C   0  0  0  0  0
    2.3712    2.8800    0.0620 C   0  0  0  0  0
    3.1337    4.0358   -0.1166 C   0  0  0  0  0
    4.5011    3.9402   -0.4056 C   0  0  0  0  0
    5.2822    5.1843   -0.5745 C   0  0  0  0  0
    4.7481    6.2873   -0.5680 O   0  0  0  0  0
    5.1188    2.6883   -0.5303 C   0  0  0  0  0
    6.4557    2.6841   -0.8289 O   0  0  0  0  0
    7.0747    1.4232   -1.0562 C   0  0  0  0  0
    4.3416    1.5393   -0.3456 C   0  0  0  0  0
    0.6225   -0.5860    0.5284 H   0  0  0  0  0
    0.3829    0.9116   -0.3805 H   0  0  0  0  0
    0.7859    0.9540    1.3807 H   0  0  0  0  0
    1.3159    2.9946    0.2871 H   0  0  0  0  0
    2.6604    5.0120   -0.0261 H   0  0  0  0  0
    6.3725    5.0869   -0.7032 H   0  0  0  0  0
    8.1138    1.6101   -1.3438 H   0  0  0  0  0
    6.5936    0.8870   -1.8808 H   0  0  0  0  0
    7.0843    0.8219   -0.1416 H   0  0  0  0  0
    4.7705    0.5449   -0.4227 H   0  0  0  0  0
  1  2  1  0  0  0
  1 13  1  0  0  0
  1 14  1  0  0  0
  1 15  1  0  0  0
  2  3  1  0  0  0
  3  4  2  0  0  0
  3 12  1  0  0  0
  4  5  1  0  0  0
  4 16  1  0  0  0
  5  6  2  0  0  0
  5 17  1  0  0  0
  6  9  1  0  0  0
  6  7  1  0  0  0
  7  8  2  0  0  0
  7 18  1  0  0  0
  9 12  2  0  0  0
  9 10  1  0  0  0
 10 11  1  0  0  0
 11 19  1  0  0  0
 11 20  1  0  0  0
 11 21  1  0  0  0
 12 22  1  0  0  0
M  END