287
 OpenBabel11300911203D

 20 20  0  0  0  0  0  0  0  0999 V2000
    1.5494    0.4902    0.4788 O   0  0  0  0  0
    2.7269    0.6247    0.1854 C   0  0  0  0  0
    3.6105   -0.3771   -0.0448 O   0  0  0  0  0
    3.0439   -1.6849    0.0542 C   0  0  0  0  0
    3.3777    1.9500   -0.0058 C   0  0  0  0  0
    2.5653    3.0946    0.0124 C   0  0  0  0  0
    3.1196    4.3626   -0.1912 C   0  0  0  0  0
    4.4979    4.4860   -0.4098 C   0  0  0  0  0
    5.0834    5.8133   -0.6426 N   0  0  0  0  0
    6.3072    5.8783   -0.8250 O   0  0  0  0  0
    4.3181    6.7877   -0.6458 O   0  0  0  0  0
    5.3218    3.3519   -0.4156 C   0  0  0  0  0
    4.7590    2.0865   -0.2133 C   0  0  0  0  0
    3.8313   -2.4119   -0.1632 H   0  0  0  0  0
    2.2436   -1.8119   -0.6819 H   0  0  0  0  0
    2.6726   -1.8668    1.0675 H   0  0  0  0  0
    1.4921    3.0010    0.1770 H   0  0  0  0  0
    2.4668    5.2336   -0.1812 H   0  0  0  0  0
    6.3949    3.4335   -0.5801 H   0  0  0  0  0
    5.4102    1.2146   -0.2234 H   0  0  0  0  0
  1  2  2  0  0  0
  2  5  1  0  0  0
  2  3  1  0  0  0
  3  4  1  0  0  0
  4 14  1  0  0  0
  4 15  1  0  0  0
  4 16  1  0  0  0
  5  6  2  0  0  0
  5 13  1  0  0  0
  6  7  1  0  0  0
  6 17  1  0  0  0
  7  8  2  0  0  0
  7 18  1  0  0  0
  8 12  1  0  0  0
  8  9  1  0  0  0
  9 11  2  0  0  0
  9 10  2  0  0  0
 12 13  2  0  0  0
 12 19  1  0  0  0
 13 20  1  0  0  0
M  END