288
 OpenBabel11300911203D

 18 18  0  0  0  0  0  0  0  0999 V2000
    2.8625   -1.0374    0.3294 O   0  0  0  0  0
    2.2285   -0.0214    0.0787 C   0  0  0  0  0
    0.8778   -0.0712   -0.1239 N   0  0  0  0  0
    2.9004    1.2998   -0.0543 C   0  0  0  0  0
    2.2070    2.5104    0.0866 C   0  0  0  0  0
    2.8846    3.7284   -0.0431 C   0  0  0  0  0
    4.2616    3.7329   -0.3079 C   0  0  0  0  0
    4.9725    5.0108   -0.4460 N   0  0  0  0  0
    6.1889    4.9728   -0.6754 O   0  0  0  0  0
    4.3100    6.0522   -0.3285 O   0  0  0  0  0
    4.9651    2.5288   -0.4363 C   0  0  0  0  0
    4.2811    1.3164   -0.3045 C   0  0  0  0  0
    0.4586   -0.9930   -0.1155 H   0  0  0  0  0
    0.3477    0.6785   -0.5416 H   0  0  0  0  0
    1.1467    2.5266    0.3238 H   0  0  0  0  0
    2.3300    4.6581    0.0731 H   0  0  0  0  0
    6.0352    2.5140   -0.6339 H   0  0  0  0  0
    4.8283    0.3787   -0.3990 H   0  0  0  0  0
  1  2  2  0  0  0
  2  4  1  0  0  0
  2  3  1  0  0  0
  3 13  1  0  0  0
  3 14  1  0  0  0
  4  5  2  0  0  0
  4 12  1  0  0  0
  5  6  1  0  0  0
  5 15  1  0  0  0
  6  7  2  0  0  0
  6 16  1  0  0  0
  7 11  1  0  0  0
  7  8  1  0  0  0
  8 10  2  0  0  0
  8  9  2  0  0  0
 11 12  2  0  0  0
 11 17  1  0  0  0
 12 18  1  0  0  0
M  END