289
 OpenBabel11300911573D

 25 26  0  0  0  0  0  0  0  0999 V2000
   -5.7974   -0.4143   -1.6199 C   0  0  0  0  0
   -6.1970   -1.7511   -1.5700 C   0  0  0  0  0
   -5.6605   -2.6066   -0.6068 C   0  0  0  0  0
   -4.7188   -2.1291    0.3042 C   0  0  0  0  0
   -4.3262   -0.7912    0.2627 C   0  0  0  0  0
   -4.8823    0.0721   -0.6827 C   0  0  0  0  0
   -4.4095    1.3637   -0.6820 O   0  0  0  0  0
   -5.2911    2.4049   -0.8655 C   0  0  0  0  0
   -6.6038    2.4181   -0.3830 C   0  0  0  0  0
   -7.4146    3.5385   -0.5900 C   0  0  0  0  0
   -6.8937    4.6568   -1.2557 C   0  0  0  0  0
   -7.7402    5.8366   -1.4729 N   0  0  0  0  0
   -7.2250    6.8243   -2.0152 O   0  0  0  0  0
   -8.9219    5.7736   -1.1036 O   0  0  0  0  0
   -5.5682    4.6616   -1.7096 C   0  0  0  0  0
   -4.7708    3.5330   -1.5078 C   0  0  0  0  0
   -6.2005    0.2338   -2.3924 H   0  0  0  0  0
   -6.9200   -2.1292   -2.2884 H   0  0  0  0  0
   -5.9677   -3.6490   -0.5739 H   0  0  0  0  0
   -4.2866   -2.7995    1.0428 H   0  0  0  0  0
   -3.5852   -0.4214    0.9666 H   0  0  0  0  0
   -7.0069    1.5660    0.1595 H   0  0  0  0  0
   -8.4388    3.5260   -0.2213 H   0  0  0  0  0
   -5.1441    5.5274   -2.2138 H   0  0  0  0  0
   -3.7385    3.5313   -1.8505 H   0  0  0  0  0
  1  6  1  0  0  0
  1  2  2  0  0  0
  1 17  1  0  0  0
  2  3  1  0  0  0
  2 18  1  0  0  0
  3  4  2  0  0  0
  3 19  1  0  0  0
  4  5  1  0  0  0
  4 20  1  0  0  0
  5  6  2  0  0  0
  5 21  1  0  0  0
  6  7  1  0  0  0
  7  8  1  0  0  0
  8  9  2  0  0  0
  8 16  1  0  0  0
  9 10  1  0  0  0
  9 22  1  0  0  0
 10 11  2  0  0  0
 10 23  1  0  0  0
 11 15  1  0  0  0
 11 12  1  0  0  0
 12 14  2  0  0  0
 12 13  2  0  0  0
 15 16  2  0  0  0
 15 24  1  0  0  0
 16 25  1  0  0  0
M  END