290
 OpenBabel11300911203D

 30 31  0  0  0  0  0  0  0  0999 V2000
    2.2589    1.3063   -1.7428 O   0  0  0  0  0
    2.7520    0.3561   -0.6876 S   0  0  0  0  0
    2.7885   -1.3224   -1.4062 C   0  0  0  0  0
    1.4087   -1.9076   -1.5801 C   0  0  0  0  0
    0.5074   -1.3553   -2.5037 C   0  0  0  0  0
   -0.7664   -1.9010   -2.6698 C   0  0  0  0  0
   -1.1524   -3.0109   -1.9233 C   0  0  0  0  0
   -0.2657   -3.5746   -1.0072 C   0  0  0  0  0
    1.0074   -3.0257   -0.8348 C   0  0  0  0  0
    4.5587    0.5772   -0.5851 C   0  0  0  0  0
    5.2115   -0.2289    0.5093 C   0  0  0  0  0
    4.8398   -0.0554    1.8513 C   0  0  0  0  0
    5.4631   -0.7909    2.8605 C   0  0  0  0  0
    6.4716   -1.6975    2.5423 C   0  0  0  0  0
    6.8591   -1.8690    1.2150 C   0  0  0  0  0
    6.2345   -1.1380    0.2035 C   0  0  0  0  0
    3.3791   -1.9614   -0.7428 H   0  0  0  0  0
    3.2985   -1.2825   -2.3740 H   0  0  0  0  0
    0.7892   -0.4825   -3.0910 H   0  0  0  0  0
   -1.4571   -1.4540   -3.3802 H   0  0  0  0  0
   -2.1444   -3.4347   -2.0531 H   0  0  0  0  0
   -0.5675   -4.4415   -0.4252 H   0  0  0  0  0
    1.6818   -3.4813   -0.1130 H   0  0  0  0  0
    4.7459    1.6408   -0.3972 H   0  0  0  0  0
    4.9858    0.3446   -1.5670 H   0  0  0  0  0
    4.0651    0.6594    2.1244 H   0  0  0  0  0
    5.1662   -0.6500    3.8971 H   0  0  0  0  0
    6.9613   -2.2644    3.3303 H   0  0  0  0  0
    7.6543   -2.5677    0.9695 H   0  0  0  0  0
    6.5613   -1.2797   -0.8245 H   0  0  0  0  0
  1  2  2  0  0  0
  2 10  1  0  0  0
  2  3  1  0  0  0
  3  4  1  0  0  0
  3 17  1  0  0  0
  3 18  1  0  0  0
  4  5  2  0  0  0
  4  9  1  0  0  0
  5  6  1  0  0  0
  5 19  1  0  0  0
  6  7  2  0  0  0
  6 20  1  0  0  0
  7  8  1  0  0  0
  7 21  1  0  0  0
  8  9  2  0  0  0
  8 22  1  0  0  0
  9 23  1  0  0  0
 10 11  1  0  0  0
 10 24  1  0  0  0
 10 25  1  0  0  0
 11 12  2  0  0  0
 11 16  1  0  0  0
 12 13  1  0  0  0
 12 26  1  0  0  0
 13 14  2  0  0  0
 13 27  1  0  0  0
 14 15  1  0  0  0
 14 28  1  0  0  0
 15 16  2  0  0  0
 15 29  1  0  0  0
 16 30  1  0  0  0
M  END