295
 OpenBabel11300911573D

 22 21  0  0  0  0  0  0  0  0999 V2000
    1.3263    1.1255   -0.0656 S   0  0  0  0  0
    3.2696    0.9472    0.5896 S   0  0  0  0  0
    3.2824   -0.6381    1.4981 C   0  0  0  0  0
    2.8612   -1.8729    0.7043 C   0  0  0  0  0
    3.7697   -2.1877   -0.4744 C   0  0  0  0  0
    0.3863    1.5210    1.4490 C   0  0  0  0  0
    0.8408    2.8001    2.1451 C   0  0  0  0  0
   -0.0043    3.0696    3.3824 C   0  0  0  0  0
    2.6410   -0.5277    2.3788 H   0  0  0  0  0
    4.3018   -0.7791    1.8742 H   0  0  0  0  0
    1.8261   -1.7841    0.3583 H   0  0  0  0  0
    2.8783   -2.7324    1.3858 H   0  0  0  0  0
    3.7149   -1.4151   -1.2465 H   0  0  0  0  0
    3.4706   -3.1361   -0.9332 H   0  0  0  0  0
    4.8112   -2.2836   -0.1520 H   0  0  0  0  0
    0.4427    0.6639    2.1284 H   0  0  0  0  0
   -0.6639    1.6194    1.1518 H   0  0  0  0  0
    0.7594    3.6541    1.4628 H   0  0  0  0  0
    1.8871    2.7277    2.4593 H   0  0  0  0  0
   -1.0589    3.1966    3.1179 H   0  0  0  0  0
    0.3351    3.9824    3.8820 H   0  0  0  0  0
    0.0746    2.2424    4.0959 H   0  0  0  0  0
  1  6  1  0  0  0
  1  2  1  0  0  0
  2  3  1  0  0  0
  3  4  1  0  0  0
  3  9  1  0  0  0
  3 10  1  0  0  0
  4  5  1  0  0  0
  4 11  1  0  0  0
  4 12  1  0  0  0
  5 13  1  0  0  0
  5 14  1  0  0  0
  5 15  1  0  0  0
  6  7  1  0  0  0
  6 16  1  0  0  0
  6 17  1  0  0  0
  7  8  1  0  0  0
  7 18  1  0  0  0
  7 19  1  0  0  0
  8 20  1  0  0  0
  8 21  1  0  0  0
  8 22  1  0  0  0
M  END