298
 OpenBabel11300911573D

 22 22  0  0  0  0  0  0  0  0999 V2000
    0.9075    0.0335    0.2788 O   0  0  0  0  0
    2.2564    0.0652    0.0817 C   0  0  0  0  0
    2.9430    1.2685   -0.0409 C   0  0  0  0  0
    4.3247    1.2535   -0.2453 C   0  0  0  0  0
    5.0202    0.0382   -0.3224 C   0  0  0  0  0
    4.3085   -1.1633   -0.2011 C   0  0  0  0  0
    6.5086    0.0227   -0.5682 C   0  0  0  0  0
    6.8316   -0.0003   -2.0626 C   0  0  0  0  0
    8.3320   -0.0227   -2.3067 C   0  0  0  0  0
    2.9280   -1.1484    0.0033 C   0  0  0  0  0
    0.5794    0.9470    0.3051 H   0  0  0  0  0
    2.4258    2.2207    0.0165 H   0  0  0  0  0
    4.8579    2.1961   -0.3466 H   0  0  0  0  0
    4.8246   -2.1182   -0.2674 H   0  0  0  0  0
    6.9506   -0.8504   -0.0712 H   0  0  0  0  0
    6.9649    0.9016   -0.0949 H   0  0  0  0  0
    6.4009    0.8796   -2.5556 H   0  0  0  0  0
    6.3783   -0.8808   -2.5337 H   0  0  0  0  0
    8.8123    0.8641   -1.8809 H   0  0  0  0  0
    8.5407   -0.0391   -3.3811 H   0  0  0  0  0
    8.7891   -0.9108   -1.8585 H   0  0  0  0  0
    2.3788   -2.0807    0.0979 H   0  0  0  0  0
  1  2  1  0  0  0
  1 11  1  0  0  0
  2  3  2  0  0  0
  2 10  1  0  0  0
  3  4  1  0  0  0
  3 12  1  0  0  0
  4  5  2  0  0  0
  4 13  1  0  0  0
  5  6  1  0  0  0
  5  7  1  0  0  0
  6 10  2  0  0  0
  6 14  1  0  0  0
  7  8  1  0  0  0
  7 15  1  0  0  0
  7 16  1  0  0  0
  8  9  1  0  0  0
  8 17  1  0  0  0
  8 18  1  0  0  0
  9 19  1  0  0  0
  9 20  1  0  0  0
  9 21  1  0  0  0
 10 22  1  0  0  0
M  END