299
 OpenBabel11300911203D

 14 14  0  0  0  0  0  0  0  0999 V2000
    0.9277   -0.0377   -0.0178 F   0  0  0  0  0
    2.2671   -0.0011   -0.0072 C   0  0  0  0  0
    2.9300    1.2183    0.0308 C   0  0  0  0  0
    2.2272    2.3588    0.0569 F   0  0  0  0  0
    4.3221    1.2603    0.0420 C   0  0  0  0  0
    4.9274    2.4547    0.0790 F   0  0  0  0  0
    5.0567    0.0749    0.0150 C   0  0  0  0  0
    6.5267    0.0644    0.0253 C   0  0  0  0  0
    7.1915    1.0900    0.0581 O   0  0  0  0  0
    4.3854   -1.1454   -0.0231 C   0  0  0  0  0
    5.0724   -2.2963   -0.0496 F   0  0  0  0  0
    2.9946   -1.1823   -0.0342 C   0  0  0  0  0
    2.3595   -2.3614   -0.0709 F   0  0  0  0  0
    7.0165   -0.9243    0.0019 H   0  0  0  0  0
  1  2  1  0  0  0
  2 12  1  0  0  0
  2  3  2  0  0  0
  3  5  1  0  0  0
  3  4  1  0  0  0
  5  7  2  0  0  0
  5  6  1  0  0  0
  7 10  1  0  0  0
  7  8  1  0  0  0
  8  9  2  0  0  0
  8 14  1  0  0  0
 10 12  2  0  0  0
 10 11  1  0  0  0
 12 13  1  0  0  0
M  END