301
 OpenBabel11300911573D

 28 27  0  0  0  0  0  0  0  0999 V2000
    0.9325    0.2026   -0.0473 N   0  0  0  0  0
    2.3926    0.1118   -0.0359 C   0  0  0  0  0
    2.9167   -0.6986   -1.2343 C   0  0  0  0  0
    2.4624   -2.1623   -1.2316 C   0  0  0  0  0
    3.0698   -2.9337   -2.4066 C   0  0  0  0  0
    2.5765   -4.3815   -2.4344 C   0  0  0  0  0
    3.1612   -5.1461   -3.6212 C   0  0  0  0  0
    2.6548   -6.5791   -3.6639 C   0  0  0  0  0
    2.9712    1.5268   -0.0573 C   0  0  0  0  0
    0.6168    0.7662    0.7413 H   0  0  0  0  0
    0.5268   -0.7220    0.0885 H   0  0  0  0  0
    2.7059   -0.3766    0.8950 H   0  0  0  0  0
    4.0139   -0.6718   -1.2244 H   0  0  0  0  0
    2.6019   -0.2229   -2.1717 H   0  0  0  0  0
    1.3700   -2.2188   -1.2973 H   0  0  0  0  0
    2.7575   -2.6383   -0.2881 H   0  0  0  0  0
    4.1638   -2.9181   -2.3316 H   0  0  0  0  0
    2.8025   -2.4376   -3.3472 H   0  0  0  0  0
    1.4814   -4.3946   -2.4941 H   0  0  0  0  0
    2.8550   -4.8830   -1.4997 H   0  0  0  0  0
    4.2554   -5.1519   -3.5585 H   0  0  0  0  0
    2.8925   -4.6430   -4.5579 H   0  0  0  0  0
    2.9323   -7.1205   -2.7538 H   0  0  0  0  0
    3.0858   -7.1085   -4.5193 H   0  0  0  0  0
    1.5647   -6.6070   -3.7616 H   0  0  0  0  0
    2.6841    2.0640   -0.9687 H   0  0  0  0  0
    4.0644    1.4982   -0.0140 H   0  0  0  0  0
    2.6214    2.1092    0.8023 H   0  0  0  0  0
  1  2  1  0  0  0
  1 10  1  0  0  0
  1 11  1  0  0  0
  2  9  1  0  0  0
  2  3  1  0  0  0
  2 12  1  0  0  0
  3  4  1  0  0  0
  3 13  1  0  0  0
  3 14  1  0  0  0
  4  5  1  0  0  0
  4 15  1  0  0  0
  4 16  1  0  0  0
  5  6  1  0  0  0
  5 17  1  0  0  0
  5 18  1  0  0  0
  6  7  1  0  0  0
  6 19  1  0  0  0
  6 20  1  0  0  0
  7  8  1  0  0  0
  7 21  1  0  0  0
  7 22  1  0  0  0
  8 23  1  0  0  0
  8 24  1  0  0  0
  8 25  1  0  0  0
  9 26  1  0  0  0
  9 27  1  0  0  0
  9 28  1  0  0  0
M  END