303
 OpenBabel11300911573D

 33 32  0  0  0  0  0  0  0  0999 V2000
    1.1100   -0.1493    0.0318 O   0  0  0  0  0
    0.6161   -1.4878    0.0261 C   0  0  0  0  0
   -0.9068   -1.4338    0.0620 C   0  0  0  0  0
   -1.5222   -2.8316    0.0742 C   0  0  0  0  0
   -3.0491   -2.7659    0.0895 C   0  0  0  0  0
   -3.6668   -4.1547    0.1122 C   0  0  0  0  0
    2.5348   -0.1110   -0.0247 C   0  0  0  0  0
    2.9751    1.3479    0.0198 C   0  0  0  0  0
    4.4950    1.4818   -0.0446 C   0  0  0  0  0
    4.9272    2.9460    0.0220 C   0  0  0  0  0
    6.4396    3.0839   -0.0477 C   0  0  0  0  0
    0.9981   -2.0214    0.9040 H   0  0  0  0  0
    0.9560   -2.0007   -0.8808 H   0  0  0  0  0
   -1.2691   -0.8669   -0.8046 H   0  0  0  0  0
   -1.2297   -0.8700    0.9458 H   0  0  0  0  0
   -1.1683   -3.3807    0.9555 H   0  0  0  0  0
   -1.1873   -3.3892   -0.8094 H   0  0  0  0  0
   -3.4067   -2.2280   -0.7959 H   0  0  0  0  0
   -3.3893   -2.2067    0.9685 H   0  0  0  0  0
   -3.3679   -4.7321   -0.7686 H   0  0  0  0  0
   -4.7591   -4.0836    0.1170 H   0  0  0  0  0
   -3.3585   -4.7067    1.0061 H   0  0  0  0  0
    2.8761   -0.5826   -0.9531 H   0  0  0  0  0
    2.9511   -0.6580    0.8290 H   0  0  0  0  0
    2.5909    1.8138    0.9360 H   0  0  0  0  0
    2.5105    1.8932   -0.8114 H   0  0  0  0  0
    4.8638    1.0306   -0.9740 H   0  0  0  0  0
    4.9484    0.9268    0.7858 H   0  0  0  0  0
    4.5681    3.3979    0.9536 H   0  0  0  0  0
    4.4767    3.5060   -0.8054 H   0  0  0  0  0
    6.9210    2.5572    0.7829 H   0  0  0  0  0
    6.7274    4.1388    0.0067 H   0  0  0  0  0
    6.8283    2.6741   -0.9859 H   0  0  0  0  0
  1  7  1  0  0  0
  1  2  1  0  0  0
  2  3  1  0  0  0
  2 12  1  0  0  0
  2 13  1  0  0  0
  3  4  1  0  0  0
  3 14  1  0  0  0
  3 15  1  0  0  0
  4  5  1  0  0  0
  4 16  1  0  0  0
  4 17  1  0  0  0
  5  6  1  0  0  0
  5 18  1  0  0  0
  5 19  1  0  0  0
  6 20  1  0  0  0
  6 21  1  0  0  0
  6 22  1  0  0  0
  7  8  1  0  0  0
  7 23  1  0  0  0
  7 24  1  0  0  0
  8  9  1  0  0  0
  8 25  1  0  0  0
  8 26  1  0  0  0
  9 10  1  0  0  0
  9 27  1  0  0  0
  9 28  1  0  0  0
 10 11  1  0  0  0
 10 29  1  0  0  0
 10 30  1  0  0  0
 11 31  1  0  0  0
 11 32  1  0  0  0
 11 33  1  0  0  0
M  END