304
 OpenBabel11300911203D

 11 11  0  0  0  0  0  0  0  0999 V2000
    0.9815   -0.0208   -0.0065 C   0  0  0  0  0
    2.4567    0.0245    0.0002 C   0  0  0  0  0
    3.2999    1.1119    0.0010 C   0  0  0  0  0
    4.5829    0.6548    0.0080 O   0  0  0  0  0
    4.4437   -0.6990    0.0111 C   0  0  0  0  0
    3.2034   -1.1318    0.0067 N   0  0  0  0  0
    0.5519    0.9858    0.0033 H   0  0  0  0  0
    0.6133   -0.5574    0.8733 H   0  0  0  0  0
    0.6210   -0.5371   -0.9015 H   0  0  0  0  0
    3.1691    2.1839   -0.0026 H   0  0  0  0  0
    5.3550   -1.2801    0.0167 H   0  0  0  0  0
  1  2  1  0  0  0
  1  7  1  0  0  0
  1  8  1  0  0  0
  1  9  1  0  0  0
  2  3  2  0  0  0
  2  6  1  0  0  0
  3  4  1  0  0  0
  3 10  1  0  0  0
  4  5  1  0  0  0
  5  6  2  0  0  0
  5 11  1  0  0  0
M  END