314
 OpenBabel11300911213D

 19 19  0  0  0  0  0  0  0  0999 V2000
   -0.6566    1.2281   -0.0036 N   0  0  0  0  0
   -1.3139    0.0460   -0.0049 C   0  0  0  0  0
   -0.6513   -1.1809   -0.0045 C   0  0  0  0  0
    0.7508   -1.2098   -0.0019 C   0  0  0  0  0
    1.4715   -2.5297   -0.0024 C   0  0  0  0  0
   -2.8133    0.0906   -0.0090 C   0  0  0  0  0
    0.6886    1.1708   -0.0019 C   0  0  0  0  0
    1.2577    2.4023   -0.0011 O   0  0  0  0  0
    1.4444    0.0100   -0.0014 C   0  0  0  0  0
    2.8735    0.0723   -0.0009 C   0  0  0  0  0
    4.0352    0.0682   -0.0007 N   0  0  0  0  0
   -1.2250   -2.1045   -0.0061 H   0  0  0  0  0
    0.7683   -3.3694    0.0087 H   0  0  0  0  0
    2.1044   -2.6191    0.8864 H   0  0  0  0  0
    2.0875   -2.6269   -0.9022 H   0  0  0  0  0
   -3.1721    1.1249   -0.0002 H   0  0  0  0  0
   -3.2090   -0.4150    0.8773 H   0  0  0  0  0
   -3.2032   -0.3982   -0.9072 H   0  0  0  0  0
    0.4587    2.9612   -0.0016 H   0  0  0  0  0
  1  2  2  0  0  0
  1  7  1  0  0  0
  2  3  1  0  0  0
  2  6  1  0  0  0
  3  4  2  0  0  0
  3 12  1  0  0  0
  4  9  1  0  0  0
  4  5  1  0  0  0
  5 13  1  0  0  0
  5 14  1  0  0  0
  5 15  1  0  0  0
  6 16  1  0  0  0
  6 17  1  0  0  0
  6 18  1  0  0  0
  7  9  2  0  0  0
  7  8  1  0  0  0
  8 19  1  0  0  0
  9 10  1  0  0  0
 10 11  3  0  0  0
M  END