316
 OpenBabel11300911573D

 34 34  0  0  0  0  0  0  0  0999 V2000
    1.6272    1.2713    0.2161 C   0  0  0  0  0
    2.9060    1.8512    0.7842 C   0  0  0  0  0
    4.0079    1.2910    0.0867 O   0  0  0  0  0
    5.5111    1.7834    0.4718 P   0  0  0  0  0
    6.0385    1.2601    2.2776 S   0  0  0  0  0
    6.3549    0.9927   -0.6726 O   0  0  0  0  0
    6.2277   -0.4153   -0.7885 C   0  0  0  0  0
    7.0587   -0.8753   -1.9698 C   0  0  0  0  0
    5.6317    3.8039   -0.0831 S   0  0  0  0  0
    7.1718    4.3658    0.6665 C   0  0  0  0  0
    7.4239    6.1544    0.4243 S   0  0  0  0  0
    6.1762    6.7853    1.5321 C   0  0  0  0  0
    6.4478    6.9407    2.8952 C   0  0  0  0  0
    5.4575    7.4206    3.7582 C   0  0  0  0  0
    4.1987    7.7465    3.2569 C   0  0  0  0  0
    2.9771    8.3246    4.3206 Cl  0  0  0  0  0
    3.9228    7.6078    1.8989 C   0  0  0  0  0
    4.9153    7.1354    1.0363 C   0  0  0  0  0
    0.7515    1.6923    0.7190 H   0  0  0  0  0
    1.6123    0.1826    0.3334 H   0  0  0  0  0
    1.5522    1.4784   -0.8568 H   0  0  0  0  0
    2.9785    1.6130    1.8489 H   0  0  0  0  0
    2.9009    2.9380    0.6647 H   0  0  0  0  0
    5.1799   -0.6857   -0.9477 H   0  0  0  0  0
    6.5862   -0.8982    0.1244 H   0  0  0  0  0
    6.7073   -0.4052   -2.8946 H   0  0  0  0  0
    7.0063   -1.9617   -2.0850 H   0  0  0  0  0
    8.1066   -0.5830   -1.8423 H   0  0  0  0  0
    8.0052    3.8346    0.1977 H   0  0  0  0  0
    7.1860    4.1431    1.7362 H   0  0  0  0  0
    7.4277    6.6933    3.2968 H   0  0  0  0  0
    5.6758    7.5369    4.8168 H   0  0  0  0  0
    2.9446    7.8636    1.5040 H   0  0  0  0  0
    4.6924    7.0300   -0.0243 H   0  0  0  0  0
  1  2  1  0  0  0
  1 19  1  0  0  0
  1 20  1  0  0  0
  1 21  1  0  0  0
  2  3  1  0  0  0
  2 22  1  0  0  0
  2 23  1  0  0  0
  3  4  1  0  0  0
  4  9  1  0  0  0
  4  6  1  0  0  0
  4  5  2  0  0  0
  6  7  1  0  0  0
  7  8  1  0  0  0
  7 24  1  0  0  0
  7 25  1  0  0  0
  8 26  1  0  0  0
  8 27  1  0  0  0
  8 28  1  0  0  0
  9 10  1  0  0  0
 10 11  1  0  0  0
 10 29  1  0  0  0
 10 30  1  0  0  0
 11 12  1  0  0  0
 12 13  2  0  0  0
 12 18  1  0  0  0
 13 14  1  0  0  0
 13 31  1  0  0  0
 14 15  2  0  0  0
 14 32  1  0  0  0
 15 17  1  0  0  0
 15 16  1  0  0  0
 17 18  2  0  0  0
 17 33  1  0  0  0
 18 34  1  0  0  0
M  END