320
 OpenBabel11300911583D

 28 27  0  0  0  0  0  0  0  0999 V2000
    1.8574    0.5988    1.0711 O   0  0  0  0  0
    2.1773    0.0633    0.0099 C   0  0  0  0  0
    2.9440   -1.2413   -0.0143 C   0  0  0  0  0
    1.9843   -2.4248   -0.0065 C   0  0  0  0  0
    2.7367   -3.7557   -0.0118 C   0  0  0  0  0
    1.7667   -4.9387   -0.0062 C   0  0  0  0  0
    2.5108   -6.2747   -0.0088 C   0  0  0  0  0
    1.5343   -7.4508   -0.0225 C   0  0  0  0  0
    2.2644   -8.7843   -0.0176 C   0  0  0  0  0
    1.7836    0.6546   -1.3180 C   0  0  0  0  0
    3.6026   -1.2653    0.8615 H   0  0  0  0  0
    3.5890   -1.2582   -0.8997 H   0  0  0  0  0
    1.3219   -2.3717   -0.8791 H   0  0  0  0  0
    1.3384   -2.3682    0.8786 H   0  0  0  0  0
    3.3915   -3.8124    0.8664 H   0  0  0  0  0
    3.3792   -3.8114   -0.8991 H   0  0  0  0  0
    1.1135   -4.8804   -0.8855 H   0  0  0  0  0
    1.1219   -4.8801    0.8794 H   0  0  0  0  0
    3.1531   -6.3396    0.8777 H   0  0  0  0  0
    3.1651   -6.3304   -0.8871 H   0  0  0  0  0
    0.8964   -7.3939   -0.9126 H   0  0  0  0  0
    0.8753   -7.3986    0.8522 H   0  0  0  0  0
    2.9123   -8.8802   -0.8945 H   0  0  0  0  0
    1.5456   -9.6094   -0.0344 H   0  0  0  0  0
    2.8818   -8.8898    0.8799 H   0  0  0  0  0
    1.2391    1.5892   -1.1572 H   0  0  0  0  0
    1.1376   -0.0419   -1.8571 H   0  0  0  0  0
    2.6810    0.8680   -1.9038 H   0  0  0  0  0
  1  2  2  0  0  0
  2 10  1  0  0  0
  2  3  1  0  0  0
  3  4  1  0  0  0
  3 11  1  0  0  0
  3 12  1  0  0  0
  4  5  1  0  0  0
  4 13  1  0  0  0
  4 14  1  0  0  0
  5  6  1  0  0  0
  5 15  1  0  0  0
  5 16  1  0  0  0
  6  7  1  0  0  0
  6 17  1  0  0  0
  6 18  1  0  0  0
  7  8  1  0  0  0
  7 19  1  0  0  0
  7 20  1  0  0  0
  8  9  1  0  0  0
  8 21  1  0  0  0
  8 22  1  0  0  0
  9 23  1  0  0  0
  9 24  1  0  0  0
  9 25  1  0  0  0
 10 26  1  0  0  0
 10 27  1  0  0  0
 10 28  1  0  0  0
M  END