322
 OpenBabel11300911583D

 24 25  0  0  0  0  0  0  0  0999 V2000
    1.2309    3.2548    0.1708 O   0  0  0  0  0
    1.2045    4.3746   -0.6303 C   0  0  0  0  0
    0.1682    4.4384   -1.5644 C   0  0  0  0  0
    0.0861    5.5176   -2.4446 C   0  0  0  0  0
    1.0470    6.5211   -2.3928 C   0  0  0  0  0
    0.9280    7.5589   -3.2689 O   0  0  0  0  0
    2.0972    6.4589   -1.4809 C   0  0  0  0  0
    2.1824    5.3746   -0.6034 C   0  0  0  0  0
    1.6917    3.3847    1.4600 C   0  0  0  0  0
    1.2220    4.3672    2.3352 C   0  0  0  0  0
    1.7060    4.4165    3.6440 C   0  0  0  0  0
    2.6365    3.4735    4.0809 C   0  0  0  0  0
    3.0807    2.4742    3.2145 C   0  0  0  0  0
    2.6021    2.4255    1.9048 C   0  0  0  0  0
   -0.5756    3.6475   -1.6066 H   0  0  0  0  0
   -0.7203    5.5725   -3.1701 H   0  0  0  0  0
    1.6626    8.1764   -3.1202 H   0  0  0  0  0
    2.8573    7.2326   -1.4428 H   0  0  0  0  0
    3.0170    5.3173    0.0898 H   0  0  0  0  0
    0.4807    5.0906    2.0079 H   0  0  0  0  0
    1.3505    5.1857    4.3248 H   0  0  0  0  0
    3.0088    3.5104    5.1025 H   0  0  0  0  0
    3.7941    1.7307    3.5595 H   0  0  0  0  0
    2.9389    1.6431    1.2304 H   0  0  0  0  0
  1  9  1  0  0  0
  1  2  1  0  0  0
  2  3  2  0  0  0
  2  8  1  0  0  0
  3  4  1  0  0  0
  3 15  1  0  0  0
  4  5  2  0  0  0
  4 16  1  0  0  0
  5  7  1  0  0  0
  5  6  1  0  0  0
  6 17  1  0  0  0
  7  8  2  0  0  0
  7 18  1  0  0  0
  8 19  1  0  0  0
  9 10  2  0  0  0
  9 14  1  0  0  0
 10 11  1  0  0  0
 10 20  1  0  0  0
 11 12  2  0  0  0
 11 21  1  0  0  0
 12 13  1  0  0  0
 12 22  1  0  0  0
 13 14  2  0  0  0
 13 23  1  0  0  0
 14 24  1  0  0  0
M  END