325
 OpenBabel11300911583D

 14 14  0  0  0  0  0  0  0  0999 V2000
    2.7700   -1.0954    0.0266 O   0  0  0  0  0
    2.1921   -0.0174    0.1207 C   0  0  0  0  0
    2.9230    1.2625   -0.0042 C   0  0  0  0  0
    2.2786    2.5014    0.1006 C   0  0  0  0  0
    3.0153    3.6844   -0.0250 C   0  0  0  0  0
    4.3891    3.6274   -0.2544 C   0  0  0  0  0
    5.0388    2.3999   -0.3601 C   0  0  0  0  0
    5.2895    5.0850   -0.4080 Cl  0  0  0  0  0
    0.5815    2.6545    0.3837 Cl  0  0  0  0  0
    4.3067    1.2176   -0.2352 C   0  0  0  0  0
    1.1070    0.0187    0.3018 H   0  0  0  0  0
    2.5205    4.6494    0.0554 H   0  0  0  0  0
    6.1106    2.3548   -0.5390 H   0  0  0  0  0
    4.8197    0.2602   -0.3188 H   0  0  0  0  0
  1  2  2  0  0  0
  2  3  1  0  0  0
  2 11  1  0  0  0
  3  4  2  0  0  0
  3 10  1  0  0  0
  4  5  1  0  0  0
  4  9  1  0  0  0
  5  6  2  0  0  0
  5 12  1  0  0  0
  6  7  1  0  0  0
  6  8  1  0  0  0
  7 10  2  0  0  0
  7 13  1  0  0  0
 10 14  1  0  0  0
M  END