326
 OpenBabel11300911213D

 24 25  0  0  0  0  0  0  0  0999 V2000
    2.8817    0.3494    0.5597 S   0  0  0  0  0
    1.9517    0.5156   -1.2719 S   0  0  0  0  0
    0.8906   -0.9180   -1.2632 C   0  0  0  0  0
    1.3120   -2.0892   -1.9026 C   0  0  0  0  0
    0.5078   -3.2286   -1.8912 C   0  0  0  0  0
   -0.7283   -3.1989   -1.2475 C   0  0  0  0  0
   -1.1597   -2.0323   -0.6163 C   0  0  0  0  0
   -0.3526   -0.8929   -0.6242 C   0  0  0  0  0
    3.9492   -1.0630    0.3293 C   0  0  0  0  0
    3.8248   -2.1505    1.2013 C   0  0  0  0  0
    4.6082   -3.2926    1.0242 C   0  0  0  0  0
    5.5229   -3.3540   -0.0252 C   0  0  0  0  0
    5.6640   -2.2695   -0.8904 C   0  0  0  0  0
    4.8849   -1.1236   -0.7085 C   0  0  0  0  0
    2.2777   -2.1274   -2.4022 H   0  0  0  0  0
    0.8485   -4.1376   -2.3806 H   0  0  0  0  0
   -1.3547   -4.0880   -1.2369 H   0  0  0  0  0
   -2.1227   -2.0100   -0.1156 H   0  0  0  0  0
   -0.6960    0.0090   -0.1246 H   0  0  0  0  0
    3.1056   -2.1227    2.0167 H   0  0  0  0  0
    4.4981   -4.1356    1.7019 H   0  0  0  0  0
    6.1255   -4.2469   -0.1691 H   0  0  0  0  0
    6.3772   -2.3167   -1.7092 H   0  0  0  0  0
    5.0065   -0.2875   -1.3935 H   0  0  0  0  0
  1  9  1  0  0  0
  1  2  1  0  0  0
  2  3  1  0  0  0
  3  4  2  0  0  0
  3  8  1  0  0  0
  4  5  1  0  0  0
  4 15  1  0  0  0
  5  6  2  0  0  0
  5 16  1  0  0  0
  6  7  1  0  0  0
  6 17  1  0  0  0
  7  8  2  0  0  0
  7 18  1  0  0  0
  8 19  1  0  0  0
  9 10  2  0  0  0
  9 14  1  0  0  0
 10 11  1  0  0  0
 10 20  1  0  0  0
 11 12  2  0  0  0
 11 21  1  0  0  0
 12 13  1  0  0  0
 12 22  1  0  0  0
 13 14  2  0  0  0
 13 23  1  0  0  0
 14 24  1  0  0  0
M  END