328
 OpenBabel11300911583D

 17 16  0  0  0  0  0  0  0  0999 V2000
    1.1765    0.3728    0.4647 O   0  0  0  0  0
    2.5583    0.4902    0.1281 C   0  0  0  0  0
    2.7587    0.1655   -1.3620 C   0  0  0  0  0
    2.4715   -1.2811   -1.6749 C   0  0  0  0  0
    3.3592   -2.1377   -2.1945 C   0  0  0  0  0
    2.9580    1.9039    0.4415 C   0  0  0  0  0
    3.9178    2.2513    1.3095 C   0  0  0  0  0
    1.1020    0.6067    1.4055 H   0  0  0  0  0
    3.1161   -0.2234    0.7466 H   0  0  0  0  0
    3.7834    0.4181   -1.6630 H   0  0  0  0  0
    2.0796    0.7749   -1.9725 H   0  0  0  0  0
    1.4599   -1.6261   -1.4626 H   0  0  0  0  0
    4.3766   -1.8368   -2.4282 H   0  0  0  0  0
    3.0804   -3.1661   -2.4011 H   0  0  0  0  0
    2.4111    2.6871   -0.0813 H   0  0  0  0  0
    4.4917    1.5099    1.8566 H   0  0  0  0  0
    4.1505    3.2970    1.4878 H   0  0  0  0  0
  1  2  1  0  0  0
  1  8  1  0  0  0
  2  6  1  0  0  0
  2  3  1  0  0  0
  2  9  1  0  0  0
  3  4  1  0  0  0
  3 10  1  0  0  0
  3 11  1  0  0  0
  4  5  2  0  0  0
  4 12  1  0  0  0
  5 13  1  0  0  0
  5 14  1  0  0  0
  6  7  2  0  0  0
  6 15  1  0  0  0
  7 16  1  0  0  0
  7 17  1  0  0  0
M  END