329
 OpenBabel11300911583D

 11 10  0  0  0  0  0  0  0  0999 V2000
    0.9376    0.0692    0.0152 O   0  0  0  0  0
    2.3610    0.0168    0.0159 C   0  0  0  0  0
    2.9274    1.4328    0.0000 C   0  0  0  0  0
    4.3714    1.4328    0.0000 C   0  0  0  0  0
    5.5615    1.4328    0.0000 C   0  0  0  0  0
    0.6206   -0.8503    0.0254 H   0  0  0  0  0
    2.6862   -0.5452   -0.8670 H   0  0  0  0  0
    2.6862   -0.5256    0.9109 H   0  0  0  0  0
    2.5426    1.9843    0.8664 H   0  0  0  0  0
    2.5426    1.9649   -0.8784 H   0  0  0  0  0
    6.6274    1.4377   -0.0001 H   0  0  0  0  0
  1  2  1  0  0  0
  1  6  1  0  0  0
  2  3  1  0  0  0
  2  7  1  0  0  0
  2  8  1  0  0  0
  3  4  1  0  0  0
  3  9  1  0  0  0
  3 10  1  0  0  0
  4  5  3  0  0  0
  5 11  1  0  0  0
M  END