333
 OpenBabel11300911583D

 21 22  0  0  0  0  0  0  0  0999 V2000
   -1.4068   -0.0873    0.4075 N   0  0  0  0  0
   -0.8828    0.8244   -0.4373 C   0  0  0  0  0
    0.4748    0.9565   -0.6852 C   0  0  0  0  0
    1.3726    0.1024   -0.0340 C   0  0  0  0  0
    0.8411   -0.8496    0.8443 C   0  0  0  0  0
    2.8224    0.2013   -0.2643 C   0  0  0  0  0
    3.4984    1.4235   -0.1105 C   0  0  0  0  0
    4.8757    1.5182   -0.3285 C   0  0  0  0  0
    5.6011    0.3911   -0.7057 C   0  0  0  0  0
    4.9510   -0.8299   -0.8644 C   0  0  0  0  0
    3.5739   -0.9233   -0.6450 C   0  0  0  0  0
   -0.5316   -0.9032    1.0299 C   0  0  0  0  0
   -1.6057    1.4683   -0.9300 H   0  0  0  0  0
    0.8218    1.7081   -1.3872 H   0  0  0  0  0
    1.4840   -1.5332    1.3889 H   0  0  0  0  0
    2.9545    2.3149    0.1958 H   0  0  0  0  0
    5.3806    2.4722   -0.2005 H   0  0  0  0  0
    6.6720    0.4643   -0.8758 H   0  0  0  0  0
    5.5136   -1.7110   -1.1622 H   0  0  0  0  0
    3.0852   -1.8852   -0.7873 H   0  0  0  0  0
   -0.9755   -1.6268    1.7080 H   0  0  0  0  0
  1  2  2  0  0  0
  1 12  1  0  0  0
  2  3  1  0  0  0
  2 13  1  0  0  0
  3  4  2  0  0  0
  3 14  1  0  0  0
  4  5  1  0  0  0
  4  6  1  0  0  0
  5 12  2  0  0  0
  5 15  1  0  0  0
  6  7  2  0  0  0
  6 11  1  0  0  0
  7  8  1  0  0  0
  7 16  1  0  0  0
  8  9  2  0  0  0
  8 17  1  0  0  0
  9 10  1  0  0  0
  9 18  1  0  0  0
 10 11  2  0  0  0
 10 19  1  0  0  0
 11 20  1  0  0  0
 12 21  1  0  0  0
M  END