334
 OpenBabel11300911213D

 24 25  0  0  0  0  0  0  0  0999 V2000
    1.5511    0.1635   -0.2152 O   0  0  0  0  0
    3.0494    0.1747   -0.3249 S   0  0  0  0  0
    3.4111   -0.3293   -2.0272 C   0  0  0  0  0
    4.6374   -0.9396   -2.3176 C   0  0  0  0  0
    4.9318   -1.3389   -3.6229 C   0  0  0  0  0
    4.0000   -1.1367   -4.6409 C   0  0  0  0  0
    2.7719   -0.5416   -4.3559 C   0  0  0  0  0
    2.4755   -0.1422   -3.0516 C   0  0  0  0  0
    3.5039    1.9105   -0.6050 C   0  0  0  0  0
    4.8536    2.2743   -0.7043 C   0  0  0  0  0
    5.2110    3.6095   -0.9037 C   0  0  0  0  0
    4.2241    4.5901   -0.9920 C   0  0  0  0  0
    2.8797    4.2387   -0.8784 C   0  0  0  0  0
    2.5206    2.9040   -0.6824 C   0  0  0  0  0
    5.3694   -1.1122   -1.5331 H   0  0  0  0  0
    5.8855   -1.8107   -3.8463 H   0  0  0  0  0
    4.2287   -1.4489   -5.6567 H   0  0  0  0  0
    2.0426   -0.3909   -5.1469 H   0  0  0  0  0
    1.5116    0.3146   -2.8356 H   0  0  0  0  0
    5.6372    1.5250   -0.6298 H   0  0  0  0  0
    6.2583    3.8854   -0.9882 H   0  0  0  0  0
    4.5022    5.6302   -1.1457 H   0  0  0  0  0
    2.1091    5.0039   -0.9401 H   0  0  0  0  0
    1.4684    2.6441   -0.5906 H   0  0  0  0  0
  1  2  2  0  0  0
  2  9  1  0  0  0
  2  3  1  0  0  0
  3  4  2  0  0  0
  3  8  1  0  0  0
  4  5  1  0  0  0
  4 15  1  0  0  0
  5  6  2  0  0  0
  5 16  1  0  0  0
  6  7  1  0  0  0
  6 17  1  0  0  0
  7  8  2  0  0  0
  7 18  1  0  0  0
  8 19  1  0  0  0
  9 10  2  0  0  0
  9 14  1  0  0  0
 10 11  1  0  0  0
 10 20  1  0  0  0
 11 12  2  0  0  0
 11 21  1  0  0  0
 12 13  1  0  0  0
 12 22  1  0  0  0
 13 14  2  0  0  0
 13 23  1  0  0  0
 14 24  1  0  0  0
M  END