341
 OpenBabel11300911583D

 19 19  0  0  0  0  0  0  0  0999 V2000
    2.0106   -0.3901   -1.6120 C   0  0  0  0  0
    3.4056   -0.2371   -1.3449 O   0  0  0  0  0
    3.6866    0.7036   -0.4091 C   0  0  0  0  0
    2.8700    1.3921    0.1818 O   0  0  0  0  0
    5.1552    0.7926   -0.1773 C   0  0  0  0  0
    6.0781    0.0076   -0.8827 C   0  0  0  0  0
    7.4481    0.1270   -0.6219 C   0  0  0  0  0
    7.9061    1.0296    0.3442 C   0  0  0  0  0
    9.3099    1.1476    0.6114 C   0  0  0  0  0
   10.4463    1.2410    0.8267 N   0  0  0  0  0
    6.9878    1.8153    1.0476 C   0  0  0  0  0
    5.6181    1.6975    0.7878 C   0  0  0  0  0
    1.8955   -1.1627   -2.3772 H   0  0  0  0  0
    1.5885    0.5438   -1.9961 H   0  0  0  0  0
    1.4816   -0.7140   -0.7103 H   0  0  0  0  0
    5.7469   -0.7015   -1.6381 H   0  0  0  0  0
    8.1523   -0.4906   -1.1778 H   0  0  0  0  0
    7.3287    2.5235    1.8028 H   0  0  0  0  0
    4.9139    2.3146    1.3437 H   0  0  0  0  0
  1  2  1  0  0  0
  1 13  1  0  0  0
  1 14  1  0  0  0
  1 15  1  0  0  0
  2  3  1  0  0  0
  3  5  1  0  0  0
  3  4  2  0  0  0
  5  6  2  0  0  0
  5 12  1  0  0  0
  6  7  1  0  0  0
  6 16  1  0  0  0
  7  8  2  0  0  0
  7 17  1  0  0  0
  8 11  1  0  0  0
  8  9  1  0  0  0
  9 10  3  0  0  0
 11 12  2  0  0  0
 11 18  1  0  0  0
 12 19  1  0  0  0
M  END