343
 OpenBabel11300911213D

 20 19  0  0  0  0  0  0  0  0999 V2000
    0.9882    0.0078    0.0448 O   0  0  0  0  0
    2.4200    0.0000    0.0000 C   0  0  0  0  0
    2.8947   -0.6716    1.1869 C   0  0  0  0  0
    3.2859   -1.2252    2.1651 C   0  0  0  0  0
    2.8150   -0.8091   -1.2437 C   0  0  0  0  0
    2.9137    1.4745   -0.0888 C   0  0  0  0  0
    2.4055    2.3416    1.0756 C   0  0  0  0  0
    4.4371    1.6162   -0.2030 C   0  0  0  0  0
    0.6722    0.4450   -0.7623 H   0  0  0  0  0
    3.6250   -1.7219    3.0445 H   0  0  0  0  0
    2.4815   -0.3068   -2.1586 H   0  0  0  0  0
    2.3299   -1.7930   -1.2383 H   0  0  0  0  0
    3.8952   -0.9738   -1.3103 H   0  0  0  0  0
    2.4784    1.9137   -0.9987 H   0  0  0  0  0
    2.8225    2.0168    2.0336 H   0  0  0  0  0
    1.3142    2.3111    1.1480 H   0  0  0  0  0
    2.6929    3.3882    0.9270 H   0  0  0  0  0
    4.9492    1.2035    0.6715 H   0  0  0  0  0
    4.7190    2.6719   -0.2840 H   0  0  0  0  0
    4.8198    1.1135   -1.0955 H   0  0  0  0  0
  1  2  1  0  0  0
  1  9  1  0  0  0
  2  6  1  0  0  0
  2  5  1  0  0  0
  2  3  1  0  0  0
  3  4  3  0  0  0
  4 10  1  0  0  0
  5 11  1  0  0  0
  5 12  1  0  0  0
  5 13  1  0  0  0
  6  8  1  0  0  0
  6  7  1  0  0  0
  6 14  1  0  0  0
  7 15  1  0  0  0
  7 16  1  0  0  0
  7 17  1  0  0  0
  8 18  1  0  0  0
  8 19  1  0  0  0
  8 20  1  0  0  0
M  END