347
 OpenBabel11300911583D

 28 27  0  0  0  0  0  0  0  0999 V2000
    0.8776    0.0513   -0.0396 C   0  0  0  0  0
    0.1156   -0.1789   -1.1164 C   0  0  0  0  0
    2.3788    0.0374   -0.0568 C   0  0  0  0  0
    2.9398    1.4577    0.0253 C   0  0  0  0  0
    4.4680    1.4523    0.0207 C   0  0  0  0  0
    5.0256    2.8767    0.0271 C   0  0  0  0  0
    6.5542    2.8719    0.0242 C   0  0  0  0  0
    7.1164    4.2921   -0.0388 C   0  0  0  0  0
    8.6157    4.2794   -0.0280 C   0  0  0  0  0
    9.3717    4.3969   -1.1270 C   0  0  0  0  0
    0.3985    0.2598    0.9145 H   0  0  0  0  0
    0.5507   -0.3835   -2.0885 H   0  0  0  0  0
   -0.9670   -0.1550   -1.0456 H   0  0  0  0  0
    2.7482   -0.4554   -0.9652 H   0  0  0  0  0
    2.7334   -0.5608    0.7919 H   0  0  0  0  0
    2.5782    1.9515    0.9358 H   0  0  0  0  0
    2.5743    2.0462   -0.8256 H   0  0  0  0  0
    4.8325    0.9223   -0.8682 H   0  0  0  0  0
    4.8377    0.9063    0.8969 H   0  0  0  0  0
    4.6612    3.4134    0.9111 H   0  0  0  0  0
    4.6578    3.4169   -0.8542 H   0  0  0  0  0
    6.9145    2.2962   -0.8385 H   0  0  0  0  0
    6.9215    2.3624    0.9245 H   0  0  0  0  0
    6.7629    4.8784    0.8176 H   0  0  0  0  0
    6.7446    4.7995   -0.9387 H   0  0  0  0  0
    9.1015    4.1698    0.9402 H   0  0  0  0  0
    8.9269    4.4976   -2.1141 H   0  0  0  0  0
   10.4542    4.3799   -1.0637 H   0  0  0  0  0
  1  3  1  0  0  0
  1  2  2  0  0  0
  1 11  1  0  0  0
  2 12  1  0  0  0
  2 13  1  0  0  0
  3  4  1  0  0  0
  3 14  1  0  0  0
  3 15  1  0  0  0
  4  5  1  0  0  0
  4 16  1  0  0  0
  4 17  1  0  0  0
  5  6  1  0  0  0
  5 18  1  0  0  0
  5 19  1  0  0  0
  6  7  1  0  0  0
  6 20  1  0  0  0
  6 21  1  0  0  0
  7  8  1  0  0  0
  7 22  1  0  0  0
  7 23  1  0  0  0
  8  9  1  0  0  0
  8 24  1  0  0  0
  8 25  1  0  0  0
  9 10  2  0  0  0
  9 26  1  0  0  0
 10 27  1  0  0  0
 10 28  1  0  0  0
M  END