348
 OpenBabel11300911213D

 25 26  0  0  0  0  0  0  0  0999 V2000
    1.4866   -2.1690    1.1189 O   0  0  0  0  0
    2.6767   -1.7020    0.6463 C   0  0  0  0  0
    3.5071   -2.4976   -0.1354 C   0  0  0  0  0
    4.7106   -1.9686   -0.6111 C   0  0  0  0  0
    5.0912   -0.6531   -0.3026 C   0  0  0  0  0
    6.2619   -0.0728   -0.8261 N   0  0  0  0  0
    7.2713   -0.7607   -0.5573 N   0  0  0  0  0
    8.4337   -0.2149   -1.1404 C   0  0  0  0  0
    9.3118   -1.0705   -1.8151 C   0  0  0  0  0
   10.4853   -0.5820   -2.3947 C   0  0  0  0  0
   10.7967    0.7739   -2.2961 C   0  0  0  0  0
    9.9403    1.6369   -1.6155 C   0  0  0  0  0
    8.7687    1.1434   -1.0359 C   0  0  0  0  0
    4.2363    0.1275    0.4837 C   0  0  0  0  0
    3.0322   -0.3955    0.9617 C   0  0  0  0  0
    1.3590   -3.0772    0.7988 H   0  0  0  0  0
    3.2388   -3.5182   -0.3902 H   0  0  0  0  0
    5.3567   -2.5797   -1.2366 H   0  0  0  0  0
    9.0751   -2.1282   -1.8925 H   0  0  0  0  0
   11.1540   -1.2571   -2.9199 H   0  0  0  0  0
   11.7094    1.1573   -2.7480 H   0  0  0  0  0
   10.1826    2.6933   -1.5332 H   0  0  0  0  0
    8.1104    1.8218   -0.4999 H   0  0  0  0  0
    4.5080    1.1524    0.7203 H   0  0  0  0  0
    2.3716    0.2160    1.5696 H   0  0  0  0  0
  1  2  1  0  0  0
  1 16  1  0  0  0
  2  3  2  0  0  0
  2 15  1  0  0  0
  3  4  1  0  0  0
  3 17  1  0  0  0
  4  5  2  0  0  0
  4 18  1  0  0  0
  5 14  1  0  0  0
  5  6  1  0  0  0
  6  7  2  0  0  0
  7  8  1  0  0  0
  8  9  2  0  0  0
  8 13  1  0  0  0
  9 10  1  0  0  0
  9 19  1  0  0  0
 10 11  2  0  0  0
 10 20  1  0  0  0
 11 12  1  0  0  0
 11 21  1  0  0  0
 12 13  2  0  0  0
 12 22  1  0  0  0
 13 23  1  0  0  0
 14 15  2  0  0  0
 14 24  1  0  0  0
 15 25  1  0  0  0
M  END