350
 OpenBabel11300911583D

 20 20  0  0  0  0  0  0  0  0999 V2000
    1.9755   -1.6139   -1.3862 O   0  0  0  0  0
    3.0111   -1.0274   -0.7151 C   0  0  0  0  0
    3.0262    0.3308   -0.3664 C   0  0  0  0  0
    4.1474    0.8186    0.3293 C   0  0  0  0  0
    5.2157   -0.0218    0.6542 C   0  0  0  0  0
    5.1815   -1.3648    0.2899 C   0  0  0  0  0
    1.9198    1.2927   -0.7369 C   0  0  0  0  0
    0.6349    1.0353    0.0009 C   0  0  0  0  0
   -0.5547    0.8642   -0.5932 C   0  0  0  0  0
    4.0780   -1.8667   -0.3955 C   0  0  0  0  0
    1.2044   -1.0266   -1.3423 H   0  0  0  0  0
    4.2033    1.8668    0.6167 H   0  0  0  0  0
    6.0769    0.3746    1.1860 H   0  0  0  0  0
    6.0116   -2.0207    0.5370 H   0  0  0  0  0
    1.7728    1.2541   -1.8236 H   0  0  0  0  0
    2.2315    2.3214   -0.5149 H   0  0  0  0  0
    0.6925    0.9969    1.0877 H   0  0  0  0  0
   -0.6730    0.9098   -1.6719 H   0  0  0  0  0
   -1.4483    0.6855   -0.0020 H   0  0  0  0  0
    4.0445   -2.9145   -0.6811 H   0  0  0  0  0
  1  2  1  0  0  0
  1 11  1  0  0  0
  2  3  2  0  0  0
  2 10  1  0  0  0
  3  4  1  0  0  0
  3  7  1  0  0  0
  4  5  2  0  0  0
  4 12  1  0  0  0
  5  6  1  0  0  0
  5 13  1  0  0  0
  6 10  2  0  0  0
  6 14  1  0  0  0
  7  8  1  0  0  0
  7 15  1  0  0  0
  7 16  1  0  0  0
  8  9  2  0  0  0
  8 17  1  0  0  0
  9 18  1  0  0  0
  9 19  1  0  0  0
 10 20  1  0  0  0
M  END