351
 OpenBabel11300911583D

 28 28  0  0  0  0  0  0  0  0999 V2000
   -1.4740   -0.1065   -0.1851 C   0  0  0  0  0
   -0.8061    1.1268   -0.1425 C   0  0  0  0  0
    0.5904    1.1971   -0.0399 C   0  0  0  0  0
    1.3671    0.0377    0.0347 C   0  0  0  0  0
    0.7168   -1.1963   -0.0216 C   0  0  0  0  0
    2.8287    0.1639    0.1073 C   0  0  0  0  0
    3.6446   -0.7082    0.7156 C   0  0  0  0  0
   -0.6782   -1.2661   -0.1244 C   0  0  0  0  0
   -3.0034   -0.2226   -0.3012 C   0  0  0  0  0
   -3.5602   -0.9931    0.9151 C   0  0  0  0  0
   -3.7312    1.1396   -0.3506 C   0  0  0  0  0
   -3.3686   -0.9826   -1.5942 C   0  0  0  0  0
   -1.3482    2.0672   -0.1893 H   0  0  0  0  0
    1.0621    2.1774   -0.0112 H   0  0  0  0  0
    1.2830   -2.1236    0.0012 H   0  0  0  0  0
    3.2571    1.0483   -0.3592 H   0  0  0  0  0
    3.2793   -1.5946    1.2227 H   0  0  0  0  0
    4.7160   -0.5364    0.7310 H   0  0  0  0  0
   -1.1357   -2.2523   -0.1626 H   0  0  0  0  0
   -3.1780   -2.0188    0.9674 H   0  0  0  0  0
   -4.6538   -1.0612    0.8733 H   0  0  0  0  0
   -3.2930   -0.4943    1.8546 H   0  0  0  0  0
   -3.4166    1.7344   -1.2161 H   0  0  0  0  0
   -3.5457    1.7294    0.5548 H   0  0  0  0  0
   -4.8167    1.0050   -0.4304 H   0  0  0  0  0
   -2.9625   -0.4759   -2.4781 H   0  0  0  0  0
   -4.4558   -1.0510   -1.7194 H   0  0  0  0  0
   -2.9813   -2.0077   -1.5966 H   0  0  0  0  0
  1  2  2  0  0  0
  1  8  1  0  0  0
  1  9  1  0  0  0
  2  3  1  0  0  0
  2 13  1  0  0  0
  3  4  2  0  0  0
  3 14  1  0  0  0
  4  5  1  0  0  0
  4  6  1  0  0  0
  5  8  2  0  0  0
  5 15  1  0  0  0
  6  7  2  0  0  0
  6 16  1  0  0  0
  7 17  1  0  0  0
  7 18  1  0  0  0
  8 19  1  0  0  0
  9 12  1  0  0  0
  9 11  1  0  0  0
  9 10  1  0  0  0
 10 20  1  0  0  0
 10 21  1  0  0  0
 10 22  1  0  0  0
 11 23  1  0  0  0
 11 24  1  0  0  0
 11 25  1  0  0  0
 12 26  1  0  0  0
 12 27  1  0  0  0
 12 28  1  0  0  0
M  END