352
 OpenBabel11300911583D

 14 14  0  0  0  0  0  0  0  0999 V2000
    1.0028   -0.0207   -0.0018 Cl  0  0  0  0  0
    2.7274    0.0276    0.0007 C   0  0  0  0  0
    3.4393   -1.1726    0.0025 C   0  0  0  0  0
    4.8380   -1.1496    0.0046 C   0  0  0  0  0
    5.5165    0.0742    0.0048 C   0  0  0  0  0
    5.5753   -2.3790    0.0066 C   0  0  0  0  0
    6.1682   -3.3759    0.0083 N   0  0  0  0  0
    3.4003    1.2531    0.0009 C   0  0  0  0  0
    2.7044    2.4341   -0.0008 O   0  0  0  0  0
    4.7974    1.2725    0.0029 C   0  0  0  0  0
    5.6772    2.7567    0.0033 Cl  0  0  0  0  0
    2.9062   -2.1220    0.0023 H   0  0  0  0  0
    6.6054    0.0972    0.0064 H   0  0  0  0  0
    1.7513    2.2265   -0.0018 H   0  0  0  0  0
  1  2  1  0  0  0
  2  3  2  0  0  0
  2  8  1  0  0  0
  3  4  1  0  0  0
  3 12  1  0  0  0
  4  5  2  0  0  0
  4  6  1  0  0  0
  5 10  1  0  0  0
  5 13  1  0  0  0
  6  7  3  0  0  0
  8 10  2  0  0  0
  8  9  1  0  0  0
  9 14  1  0  0  0
 10 11  1  0  0  0
M  END