357
 OpenBabel11300911213D

 31 31  0  0  0  0  0  0  0  0999 V2000
    0.6743    3.1479   -0.5672 C   0  0  0  0  0
    2.0109    2.7596   -0.2098 N   0  0  0  0  0
    3.1085    3.5014   -0.5493 C   0  0  0  0  0
    3.0730    4.5573   -1.1629 O   0  0  0  0  0
    4.2495    2.8598   -0.0828 O   0  0  0  0  0
    5.5000    3.5081   -0.1247 C   0  0  0  0  0
    5.6589    4.8518    0.1807 C   0  0  0  0  0
    6.9440    5.4001    0.2151 C   0  0  0  0  0
    8.0929    4.6202   -0.0227 C   0  0  0  0  0
    9.3895    5.1782    0.0336 N   0  0  0  0  0
    9.9493    5.4165   -1.3010 C   0  0  0  0  0
    9.5809    6.2831    0.9739 C   0  0  0  0  0
    7.9111    3.2458   -0.3089 C   0  0  0  0  0
    9.0748    2.3208   -0.5464 C   0  0  0  0  0
    6.6116    2.7047   -0.3665 C   0  0  0  0  0
   -0.0097    2.7823    0.2027 H   0  0  0  0  0
    0.4242    2.6890   -1.5269 H   0  0  0  0  0
    0.5922    4.2351   -0.6489 H   0  0  0  0  0
    2.1849    1.8696    0.2347 H   0  0  0  0  0
    4.8056    5.4872    0.3970 H   0  0  0  0  0
    7.0270    6.4616    0.4276 H   0  0  0  0  0
   10.3464    4.4915   -1.7286 H   0  0  0  0  0
   10.7912    6.1174   -1.2476 H   0  0  0  0  0
    9.2097    5.8407   -1.9896 H   0  0  0  0  0
    9.1429    6.0555    1.9526 H   0  0  0  0  0
    9.1576    7.2203    0.5951 H   0  0  0  0  0
   10.6525    6.4445    1.1365 H   0  0  0  0  0
    8.7867    1.2753   -0.3908 H   0  0  0  0  0
    9.8927    2.5285    0.1507 H   0  0  0  0  0
    9.4327    2.4191   -1.5752 H   0  0  0  0  0
    6.4684    1.6483   -0.5776 H   0  0  0  0  0
  1  2  1  0  0  0
  1 16  1  0  0  0
  1 17  1  0  0  0
  1 18  1  0  0  0
  2  3  1  0  0  0
  2 19  1  0  0  0
  3  5  1  0  0  0
  3  4  2  0  0  0
  5  6  1  0  0  0
  6  7  2  0  0  0
  6 15  1  0  0  0
  7  8  1  0  0  0
  7 20  1  0  0  0
  8  9  2  0  0  0
  8 21  1  0  0  0
  9 13  1  0  0  0
  9 10  1  0  0  0
 10 12  1  0  0  0
 10 11  1  0  0  0
 11 22  1  0  0  0
 11 23  1  0  0  0
 11 24  1  0  0  0
 12 25  1  0  0  0
 12 26  1  0  0  0
 12 27  1  0  0  0
 13 15  2  0  0  0
 13 14  1  0  0  0
 14 28  1  0  0  0
 14 29  1  0  0  0
 14 30  1  0  0  0
 15 31  1  0  0  0
M  END