361
 OpenBabel11300911593D

 20 20  0  0  0  0  0  0  0  0999 V2000
    1.8148    0.1904    0.3366 O   0  0  0  0  0
    1.6097    1.3735    0.1021 C   0  0  0  0  0
    0.4065    1.9301   -0.1752 O   0  0  0  0  0
   -0.6904    1.0224   -0.0798 C   0  0  0  0  0
    2.7006    2.3698   -0.0234 C   0  0  0  0  0
    2.5810    3.7124    0.3636 C   0  0  0  0  0
    1.4256    4.1752    0.9306 O   0  0  0  0  0
    3.6595    4.5912    0.2132 C   0  0  0  0  0
    4.8589    4.1163   -0.3124 C   0  0  0  0  0
    5.9395    4.9324   -0.4723 O   0  0  0  0  0
    5.0005    2.7849   -0.6842 C   0  0  0  0  0
    3.9237    1.9098   -0.5366 C   0  0  0  0  0
   -1.6141    1.5909   -0.2176 H   0  0  0  0  0
   -0.7210    0.5511    0.9079 H   0  0  0  0  0
   -0.6260    0.2665   -0.8682 H   0  0  0  0  0
    1.4825    5.1346    1.0661 H   0  0  0  0  0
    3.5697    5.6290    0.5144 H   0  0  0  0  0
    5.7172    5.8253   -0.1622 H   0  0  0  0  0
    5.9458    2.4271   -1.0837 H   0  0  0  0  0
    4.0392    0.8662   -0.8237 H   0  0  0  0  0
  1  2  2  0  0  0
  2  5  1  0  0  0
  2  3  1  0  0  0
  3  4  1  0  0  0
  4 13  1  0  0  0
  4 14  1  0  0  0
  4 15  1  0  0  0
  5  6  2  0  0  0
  5 12  1  0  0  0
  6  8  1  0  0  0
  6  7  1  0  0  0
  7 16  1  0  0  0
  8  9  2  0  0  0
  8 17  1  0  0  0
  9 11  1  0  0  0
  9 10  1  0  0  0
 10 18  1  0  0  0
 11 12  2  0  0  0
 11 19  1  0  0  0
 12 20  1  0  0  0
M  END