368
 OpenBabel11300911213D

 25 24  0  0  0  0  0  0  0  0999 V2000
    2.3897   -2.7203   -1.4084 O   0  0  0  0  0
    2.2833   -2.4837   -0.2140 C   0  0  0  0  0
    3.2263   -1.8885    0.5582 O   0  0  0  0  0
    4.4281   -1.5025   -0.1275 C   0  0  0  0  0
    5.3718   -2.6887   -0.2961 C   0  0  0  0  0
    6.5793   -2.2511   -0.9180 O   0  0  0  0  0
    7.4777   -3.3374   -1.1357 C   0  0  0  0  0
    8.7028   -2.8125   -1.8571 C   0  0  0  0  0
    1.0676   -2.8348    0.5764 C   0  0  0  0  0
    0.9919   -2.6619    1.9071 C   0  0  0  0  0
   -0.0667   -3.4003   -0.2247 C   0  0  0  0  0
    4.9139   -0.7276    0.4765 H   0  0  0  0  0
    4.2005   -1.0289   -1.0911 H   0  0  0  0  0
    4.9003   -3.4676   -0.9056 H   0  0  0  0  0
    5.5953   -3.1248    0.6848 H   0  0  0  0  0
    6.9909   -4.1068   -1.7454 H   0  0  0  0  0
    7.7677   -3.7723   -0.1727 H   0  0  0  0  0
    8.4212   -2.3582   -2.8125 H   0  0  0  0  0
    9.4176   -3.6179   -2.0466 H   0  0  0  0  0
    9.1949   -2.0338   -1.2660 H   0  0  0  0  0
    1.8133   -2.2551    2.4889 H   0  0  0  0  0
    0.0952   -2.9286    2.4577 H   0  0  0  0  0
    0.2204   -4.3576   -0.6730 H   0  0  0  0  0
   -0.3533   -2.7113   -1.0268 H   0  0  0  0  0
   -0.9559   -3.5744    0.3908 H   0  0  0  0  0
  1  2  2  0  0  0
  2  9  1  0  0  0
  2  3  1  0  0  0
  3  4  1  0  0  0
  4  5  1  0  0  0
  4 12  1  0  0  0
  4 13  1  0  0  0
  5  6  1  0  0  0
  5 14  1  0  0  0
  5 15  1  0  0  0
  6  7  1  0  0  0
  7  8  1  0  0  0
  7 16  1  0  0  0
  7 17  1  0  0  0
  8 18  1  0  0  0
  8 19  1  0  0  0
  8 20  1  0  0  0
  9 11  1  0  0  0
  9 10  2  0  0  0
 10 21  1  0  0  0
 10 22  1  0  0  0
 11 23  1  0  0  0
 11 24  1  0  0  0
 11 25  1  0  0  0
M  END