372
 OpenBabel11300911593D

 16 16  0  0  0  0  0  0  0  0999 V2000
    2.9812   -1.1286    0.6159 N   0  0  0  0  0
    2.3416    0.0392    0.3230 C   0  0  0  0  0
    1.1163    0.0748    0.2926 O   0  0  0  0  0
    3.1503    1.2706    0.0910 C   0  0  0  0  0
    2.4731    2.4895    0.2945 C   0  0  0  0  0
    3.1219    3.7136    0.1189 C   0  0  0  0  0
    4.4564    3.7330   -0.2688 C   0  0  0  0  0
    5.2624    5.2362   -0.4865 Cl  0  0  0  0  0
    5.1429    2.5411   -0.4871 C   0  0  0  0  0
    4.4950    1.3094   -0.3125 C   0  0  0  0  0
    5.4410   -0.0968   -0.6602 Cl  0  0  0  0  0
    3.9864   -1.2344    0.5933 H   0  0  0  0  0
    2.4123   -1.9551    0.7424 H   0  0  0  0  0
    1.4261    2.4876    0.5987 H   0  0  0  0  0
    2.5786    4.6408    0.2853 H   0  0  0  0  0
    6.1836    2.5711   -0.8015 H   0  0  0  0  0
  1  2  1  0  0  0
  1 12  1  0  0  0
  1 13  1  0  0  0
  2  4  1  0  0  0
  2  3  2  0  0  0
  4  5  2  0  0  0
  4 10  1  0  0  0
  5  6  1  0  0  0
  5 14  1  0  0  0
  6  7  2  0  0  0
  6 15  1  0  0  0
  7  9  1  0  0  0
  7  8  1  0  0  0
  9 10  2  0  0  0
  9 16  1  0  0  0
 10 11  1  0  0  0
M  END