374
 OpenBabel11300911593D

 17 17  0  0  0  0  0  0  0  0999 V2000
    2.6529   -0.8304    0.7232 C   0  0  0  0  0
    3.1573   -0.2548   -0.4822 O   0  0  0  0  0
    3.5394    1.0520   -0.3276 C   0  0  0  0  0
    2.7240    2.0342    0.2295 C   0  0  0  0  0
    3.1936    3.3504    0.3266 C   0  0  0  0  0
    2.1377    4.5243    1.0315 Cl  0  0  0  0  0
    4.4743    3.6809   -0.1423 C   0  0  0  0  0
    5.1118    5.2835   -0.0372 Cl  0  0  0  0  0
    5.2779    2.6990   -0.7240 C   0  0  0  0  0
    4.7979    1.3994   -0.8229 C   0  0  0  0  0
    5.5929    0.4550   -1.4089 O   0  0  0  0  0
    2.5674   -1.9097    0.5652 H   0  0  0  0  0
    1.6560   -0.4481    0.9616 H   0  0  0  0  0
    3.3431   -0.6660    1.5585 H   0  0  0  0  0
    1.7209    1.7958    0.5689 H   0  0  0  0  0
    6.2679    2.9373   -1.1024 H   0  0  0  0  0
    5.0576   -0.3623   -1.4351 H   0  0  0  0  0
  1  2  1  0  0  0
  1 12  1  0  0  0
  1 13  1  0  0  0
  1 14  1  0  0  0
  2  3  1  0  0  0
  3  4  2  0  0  0
  3 10  1  0  0  0
  4  5  1  0  0  0
  4 15  1  0  0  0
  5  7  2  0  0  0
  5  6  1  0  0  0
  7  9  1  0  0  0
  7  8  1  0  0  0
  9 10  2  0  0  0
  9 16  1  0  0  0
 10 11  1  0  0  0
 11 17  1  0  0  0
M  END