375
 OpenBabel11300911223D

 25 25  0  0  0  0  0  0  0  0999 V2000
    2.5989   -3.6179   -1.5415 O   0  0  0  0  0
    2.9357   -3.8778   -0.3952 C   0  0  0  0  0
    4.1137   -3.5416    0.1848 O   0  0  0  0  0
    5.0617   -2.8993   -0.6750 C   0  0  0  0  0
    5.9513   -3.9397   -1.3056 C   0  0  0  0  0
    7.0524   -4.4551   -0.6080 C   0  0  0  0  0
    7.8470   -5.4514   -1.1781 C   0  0  0  0  0
    7.5435   -5.9477   -2.4448 C   0  0  0  0  0
    6.4462   -5.4486   -3.1435 C   0  0  0  0  0
    5.6530   -4.4506   -2.5766 C   0  0  0  0  0
    2.0767   -4.6630    0.5394 C   0  0  0  0  0
    2.3514   -4.7795    1.8498 C   0  0  0  0  0
    0.8836   -5.3132   -0.0937 C   0  0  0  0  0
    5.6641   -2.2252   -0.0548 H   0  0  0  0  0
    4.5802   -2.2636   -1.4285 H   0  0  0  0  0
    7.2908   -4.0889    0.3880 H   0  0  0  0  0
    8.6984   -5.8467   -0.6303 H   0  0  0  0  0
    8.1575   -6.7289   -2.8849 H   0  0  0  0  0
    6.2007   -5.8417   -4.1266 H   0  0  0  0  0
    4.7882   -4.0819   -3.1262 H   0  0  0  0  0
    3.2154   -4.3068    2.3066 H   0  0  0  0  0
    1.7117   -5.3590    2.5081 H   0  0  0  0  0
    0.2275   -4.5616   -0.5446 H   0  0  0  0  0
    0.2904   -5.8767    0.6343 H   0  0  0  0  0
    1.2006   -6.0135   -0.8741 H   0  0  0  0  0
  1  2  2  0  0  0
  2 11  1  0  0  0
  2  3  1  0  0  0
  3  4  1  0  0  0
  4  5  1  0  0  0
  4 14  1  0  0  0
  4 15  1  0  0  0
  5  6  2  0  0  0
  5 10  1  0  0  0
  6  7  1  0  0  0
  6 16  1  0  0  0
  7  8  2  0  0  0
  7 17  1  0  0  0
  8  9  1  0  0  0
  8 18  1  0  0  0
  9 10  2  0  0  0
  9 19  1  0  0  0
 10 20  1  0  0  0
 11 13  1  0  0  0
 11 12  2  0  0  0
 12 21  1  0  0  0
 12 22  1  0  0  0
 13 23  1  0  0  0
 13 24  1  0  0  0
 13 25  1  0  0  0
M  END