376
 OpenBabel11300911593D

 32 32  0  0  0  0  0  0  0  0999 V2000
    3.2618   -1.8933   -0.5693 C   0  0  0  0  0
    3.4228   -0.6041    0.0413 N   0  0  0  0  0
    4.3224    0.3120   -0.4310 C   0  0  0  0  0
    5.0743    0.1171   -1.3756 O   0  0  0  0  0
    4.2178    1.4782    0.3176 O   0  0  0  0  0
    5.0121    2.6085    0.0403 C   0  0  0  0  0
    4.4168    3.8443    0.2718 C   0  0  0  0  0
    5.1412    5.0203    0.0513 C   0  0  0  0  0
    6.4713    4.9869   -0.4073 C   0  0  0  0  0
    7.2738    6.2784   -0.6539 C   0  0  0  0  0
    8.2838    6.1254   -1.8154 C   0  0  0  0  0
    6.3721    7.4815   -1.0175 C   0  0  0  0  0
    8.0487    6.6214    0.6327 C   0  0  0  0  0
    7.0580    3.7181   -0.5846 C   0  0  0  0  0
    6.3394    2.5372   -0.3611 C   0  0  0  0  0
    2.4946   -2.4480   -0.0252 H   0  0  0  0  0
    4.2125   -2.4323   -0.5306 H   0  0  0  0  0
    2.9623   -1.7645   -1.6129 H   0  0  0  0  0
    2.8074   -0.3007    0.7839 H   0  0  0  0  0
    3.3905    3.8999    0.6231 H   0  0  0  0  0
    4.6381    5.9619    0.2524 H   0  0  0  0  0
    9.0855    5.4175   -1.5796 H   0  0  0  0  0
    8.7740    7.0798   -2.0422 H   0  0  0  0  0
    7.7868    5.7816   -2.7301 H   0  0  0  0  0
    5.7310    7.7855   -0.1829 H   0  0  0  0  0
    5.7284    7.2507   -1.8744 H   0  0  0  0  0
    6.9718    8.3609   -1.2810 H   0  0  0  0  0
    7.3692    6.7769    1.4790 H   0  0  0  0  0
    8.6381    7.5370    0.5075 H   0  0  0  0  0
    8.7403    5.8178    0.9117 H   0  0  0  0  0
    8.0944    3.6181   -0.8963 H   0  0  0  0  0
    6.8352    1.5821   -0.5057 H   0  0  0  0  0
  1  2  1  0  0  0
  1 16  1  0  0  0
  1 17  1  0  0  0
  1 18  1  0  0  0
  2  3  1  0  0  0
  2 19  1  0  0  0
  3  5  1  0  0  0
  3  4  2  0  0  0
  5  6  1  0  0  0
  6  7  2  0  0  0
  6 15  1  0  0  0
  7  8  1  0  0  0
  7 20  1  0  0  0
  8  9  2  0  0  0
  8 21  1  0  0  0
  9 14  1  0  0  0
  9 10  1  0  0  0
 10 13  1  0  0  0
 10 12  1  0  0  0
 10 11  1  0  0  0
 11 22  1  0  0  0
 11 23  1  0  0  0
 11 24  1  0  0  0
 12 25  1  0  0  0
 12 26  1  0  0  0
 12 27  1  0  0  0
 13 28  1  0  0  0
 13 29  1  0  0  0
 13 30  1  0  0  0
 14 15  2  0  0  0
 14 31  1  0  0  0
 15 32  1  0  0  0
M  END