377
 OpenBabel11300911593D

 21 21  0  0  0  0  0  0  0  0999 V2000
   -0.7777    0.1556    1.2631 N   0  0  0  0  0
   -1.4707   -0.5100    0.3163 C   0  0  0  0  0
   -0.8933   -1.0586   -0.8158 C   0  0  0  0  0
    0.4808   -0.9191   -0.9891 C   0  0  0  0  0
    1.2375   -0.2451   -0.0267 C   0  0  0  0  0
    2.7251   -0.0698   -0.1683 C   0  0  0  0  0
    3.5090   -1.3826   -0.2186 C   0  0  0  0  0
    3.4131   -2.1878    1.0721 C   0  0  0  0  0
    4.2341   -3.3455    0.9698 O   0  0  0  0  0
    0.5550    0.2761    1.0694 C   0  0  0  0  0
   -2.5392   -0.5914    0.4960 H   0  0  0  0  0
   -1.4997   -1.5804   -1.5474 H   0  0  0  0  0
    0.9518   -1.3344   -1.8759 H   0  0  0  0  0
    3.1123    0.5485    0.6516 H   0  0  0  0  0
    2.9139    0.4974   -1.0884 H   0  0  0  0  0
    4.5650   -1.1580   -0.4150 H   0  0  0  0  0
    3.1837   -2.0039   -1.0617 H   0  0  0  0  0
    2.3884   -2.5124    1.2794 H   0  0  0  0  0
    3.7671   -1.6001    1.9249 H   0  0  0  0  0
    3.8505   -3.9137    0.2798 H   0  0  0  0  0
    1.0743    0.8228    1.8526 H   0  0  0  0  0
  1  2  2  0  0  0
  1 10  1  0  0  0
  2  3  1  0  0  0
  2 11  1  0  0  0
  3  4  2  0  0  0
  3 12  1  0  0  0
  4  5  1  0  0  0
  4 13  1  0  0  0
  5 10  2  0  0  0
  5  6  1  0  0  0
  6  7  1  0  0  0
  6 14  1  0  0  0
  6 15  1  0  0  0
  7  8  1  0  0  0
  7 16  1  0  0  0
  7 17  1  0  0  0
  8  9  1  0  0  0
  8 18  1  0  0  0
  8 19  1  0  0  0
  9 20  1  0  0  0
 10 21  1  0  0  0
M  END