378
 OpenBabel11300911593D

 43 42  0  0  0  0  0  0  0  0999 V2000
    0.9135   -0.0767   -0.0297 N   0  0  0  0  0
    2.3704   -0.0674    0.0270 C   0  0  0  0  0
    2.8950    1.3662   -0.0324 C   0  0  0  0  0
    4.4237    1.3973    0.0252 C   0  0  0  0  0
    4.9548    2.8313   -0.0195 C   0  0  0  0  0
    6.4837    2.8584    0.0192 C   0  0  0  0  0
    7.0163    4.2918   -0.0084 C   0  0  0  0  0
    8.5457    4.3173    0.0117 C   0  0  0  0  0
    9.0777    5.7512    0.0025 C   0  0  0  0  0
   10.6071    5.7788    0.0057 C   0  0  0  0  0
   11.1358    7.2141    0.0167 C   0  0  0  0  0
   12.6649    7.2459    0.0051 C   0  0  0  0  0
   13.1898    8.6812    0.0358 C   0  0  0  0  0
   14.7093    8.7204    0.0144 C   0  0  0  0  0
    0.5820   -1.0404   -0.0388 H   0  0  0  0  0
    0.6015    0.3406   -0.9058 H   0  0  0  0  0
    2.7700   -0.6527   -0.8084 H   0  0  0  0  0
    2.6940   -0.5484    0.9563 H   0  0  0  0  0
    2.4851    1.9464    0.8040 H   0  0  0  0  0
    2.5555    1.8494   -0.9573 H   0  0  0  0  0
    4.8339    0.8271   -0.8171 H   0  0  0  0  0
    4.7671    0.9081    0.9449 H   0  0  0  0  0
    4.5546    3.3973    0.8306 H   0  0  0  0  0
    4.6019    3.3262   -0.9325 H   0  0  0  0  0
    6.8818    2.3016   -0.8376 H   0  0  0  0  0
    6.8376    2.3533    0.9259 H   0  0  0  0  0
    6.6276    4.8443    0.8558 H   0  0  0  0  0
    6.6528    4.8023   -0.9087 H   0  0  0  0  0
    8.9330    3.7754   -0.8597 H   0  0  0  0  0
    8.9106    3.7964    0.9051 H   0  0  0  0  0
    8.6985    6.2883    0.8803 H   0  0  0  0  0
    8.7036    6.2767   -0.8846 H   0  0  0  0  0
   10.9856    5.2536   -0.8798 H   0  0  0  0  0
   10.9832    5.2423    0.8854 H   0  0  0  0  0
   10.7642    7.7343    0.9079 H   0  0  0  0  0
   10.7513    7.7543   -0.8569 H   0  0  0  0  0
   13.0360    6.7374   -0.8931 H   0  0  0  0  0
   13.0515    6.6950    0.8713 H   0  0  0  0  0
   12.8300    9.1895    0.9379 H   0  0  0  0  0
   12.8037    9.2379   -0.8261 H   0  0  0  0  0
   15.1279    8.1955    0.8790 H   0  0  0  0  0
   15.0621    9.7560    0.0423 H   0  0  0  0  0
   15.1009    8.2526   -0.8946 H   0  0  0  0  0
  1  2  1  0  0  0
  1 15  1  0  0  0
  1 16  1  0  0  0
  2  3  1  0  0  0
  2 17  1  0  0  0
  2 18  1  0  0  0
  3  4  1  0  0  0
  3 19  1  0  0  0
  3 20  1  0  0  0
  4  5  1  0  0  0
  4 21  1  0  0  0
  4 22  1  0  0  0
  5  6  1  0  0  0
  5 23  1  0  0  0
  5 24  1  0  0  0
  6  7  1  0  0  0
  6 25  1  0  0  0
  6 26  1  0  0  0
  7  8  1  0  0  0
  7 27  1  0  0  0
  7 28  1  0  0  0
  8  9  1  0  0  0
  8 29  1  0  0  0
  8 30  1  0  0  0
  9 10  1  0  0  0
  9 31  1  0  0  0
  9 32  1  0  0  0
 10 11  1  0  0  0
 10 33  1  0  0  0
 10 34  1  0  0  0
 11 12  1  0  0  0
 11 35  1  0  0  0
 11 36  1  0  0  0
 12 13  1  0  0  0
 12 37  1  0  0  0
 12 38  1  0  0  0
 13 14  1  0  0  0
 13 39  1  0  0  0
 13 40  1  0  0  0
 14 41  1  0  0  0
 14 42  1  0  0  0
 14 43  1  0  0  0
M  END