379
 OpenBabel11300911593D

 26 27  0  0  0  0  0  0  0  0999 V2000
    5.2724   -0.3344    2.1869 N   0  0  0  0  0
    4.7976    0.2910    1.0155 C   0  0  0  0  0
    5.6504    1.1660    0.3300 C   0  0  0  0  0
    5.2772    1.7194   -0.8973 C   0  0  0  0  0
    4.0561    1.3814   -1.4736 C   0  0  0  0  0
    3.2158    0.4705   -0.8343 C   0  0  0  0  0
    3.5998   -0.1065    0.3871 C   0  0  0  0  0
    2.6966   -1.0788    1.0626 C   0  0  0  0  0
    2.5635   -1.0314    2.2846 O   0  0  0  0  0
    1.9397   -2.1041    0.2957 C   0  0  0  0  0
    0.7016   -2.5277    0.7981 C   0  0  0  0  0
   -0.0451   -3.4887    0.1115 C   0  0  0  0  0
    0.4516   -4.0335   -1.0715 C   0  0  0  0  0
   -0.4697   -5.2111   -1.9223 Cl  0  0  0  0  0
    1.6929   -3.6349   -1.5671 C   0  0  0  0  0
    2.4434   -2.6751   -0.8799 C   0  0  0  0  0
    5.8769    0.2601    2.7443 H   0  0  0  0  0
    4.4890   -0.6916    2.7484 H   0  0  0  0  0
    6.6174    1.4259    0.7533 H   0  0  0  0  0
    5.9453    2.4130   -1.4026 H   0  0  0  0  0
    3.7624    1.8220   -2.4229 H   0  0  0  0  0
    2.2621    0.2251   -1.2944 H   0  0  0  0  0
    0.3154   -2.1089    1.7257 H   0  0  0  0  0
   -1.0059   -3.8076    0.5064 H   0  0  0  0  0
    2.0848   -4.0727   -2.4815 H   0  0  0  0  0
    3.4220   -2.3983   -1.2651 H   0  0  0  0  0
  1  2  1  0  0  0
  1 17  1  0  0  0
  1 18  1  0  0  0
  2  3  2  0  0  0
  2  7  1  0  0  0
  3  4  1  0  0  0
  3 19  1  0  0  0
  4  5  2  0  0  0
  4 20  1  0  0  0
  5  6  1  0  0  0
  5 21  1  0  0  0
  6  7  2  0  0  0
  6 22  1  0  0  0
  7  8  1  0  0  0
  8 10  1  0  0  0
  8  9  2  0  0  0
 10 11  2  0  0  0
 10 16  1  0  0  0
 11 12  1  0  0  0
 11 23  1  0  0  0
 12 13  2  0  0  0
 12 24  1  0  0  0
 13 15  1  0  0  0
 13 14  1  0  0  0
 15 16  2  0  0  0
 15 25  1  0  0  0
 16 26  1  0  0  0
M  END