380
 OpenBabel11300911593D

 18 18  0  0  0  0  0  0  0  0999 V2000
    2.5607   -0.3110   -1.2859 O   0  0  0  0  0
    2.5564    0.3673   -0.2723 C   0  0  0  0  0
    2.1087    0.0043    0.9522 O   0  0  0  0  0
    1.5333   -1.3014    0.9932 C   0  0  0  0  0
    3.1968    1.6889   -0.1814 C   0  0  0  0  0
    2.5356    2.8252    0.2985 C   0  0  0  0  0
    3.2218    4.0429    0.3671 C   0  0  0  0  0
    4.5536    4.1258   -0.0496 C   0  0  0  0  0
    5.1970    2.9939   -0.5469 C   0  0  0  0  0
    6.8321    3.1016   -1.0684 Cl  0  0  0  0  0
    0.8742    2.8176    0.7671 Cl  0  0  0  0  0
    4.5258    1.7766   -0.6213 C   0  0  0  0  0
    1.2068   -1.4957    2.0189 H   0  0  0  0  0
    2.2761   -2.0566    0.7176 H   0  0  0  0  0
    0.6609   -1.3565    0.3345 H   0  0  0  0  0
    2.7225    4.9357    0.7376 H   0  0  0  0  0
    5.0783    5.0768    0.0082 H   0  0  0  0  0
    5.0293    0.8950   -1.0134 H   0  0  0  0  0
  1  2  2  0  0  0
  2  5  1  0  0  0
  2  3  1  0  0  0
  3  4  1  0  0  0
  4 13  1  0  0  0
  4 14  1  0  0  0
  4 15  1  0  0  0
  5  6  2  0  0  0
  5 12  1  0  0  0
  6  7  1  0  0  0
  6 11  1  0  0  0
  7  8  2  0  0  0
  7 16  1  0  0  0
  8  9  1  0  0  0
  8 17  1  0  0  0
  9 12  2  0  0  0
  9 10  1  0  0  0
 12 18  1  0  0  0
M  END