381
 OpenBabel11300911223D

 29 29  0  0  0  0  0  0  0  0999 V2000
    0.7559    0.5952   -0.0463 C   0  0  0  0  0
    2.1415    0.0439    0.2227 C   0  0  0  0  0
    3.0674    1.1109    0.1284 O   0  0  0  0  0
    4.6407    0.8086    0.3652 P   0  0  0  0  0
    5.1769   -0.2080    1.9297 S   0  0  0  0  0
    5.0325    0.0683   -1.0266 O   0  0  0  0  0
    4.8241    0.7369   -2.2583 C   0  0  0  0  0
    5.2314   -0.1935   -3.3830 C   0  0  0  0  0
    5.3219    2.2573    0.1570 O   0  0  0  0  0
    5.0321    3.3160    0.9754 C   0  0  0  0  0
    4.1281    3.1243    1.9557 N   0  0  0  0  0
    3.8458    4.1869    2.7460 C   0  0  0  0  0
    2.6761    3.8245    3.9530 Cl  0  0  0  0  0
    4.4252    5.4428    2.5956 C   0  0  0  0  0
    4.0473    6.7868    3.6028 Cl  0  0  0  0  0
    5.3528    5.6141    1.5691 C   0  0  0  0  0
    5.6633    4.5356    0.7429 C   0  0  0  0  0
    6.7965    4.7515   -0.5346 Cl  0  0  0  0  0
    0.0009   -0.1931    0.0194 H   0  0  0  0  0
    0.7074    1.0513   -1.0408 H   0  0  0  0  0
    0.5086    1.3814    0.6755 H   0  0  0  0  0
    2.3931   -0.7275   -0.5112 H   0  0  0  0  0
    2.1730   -0.3898    1.2259 H   0  0  0  0  0
    5.4327    1.6452   -2.2942 H   0  0  0  0  0
    3.7698    1.0093   -2.3618 H   0  0  0  0  0
    6.2832   -0.4819   -3.2827 H   0  0  0  0  0
    5.0884    0.2839   -4.3565 H   0  0  0  0  0
    4.6441   -1.1172   -3.3520 H   0  0  0  0  0
    5.8268    6.5797    1.4122 H   0  0  0  0  0
  1  2  1  0  0  0
  1 19  1  0  0  0
  1 20  1  0  0  0
  1 21  1  0  0  0
  2  3  1  0  0  0
  2 22  1  0  0  0
  2 23  1  0  0  0
  3  4  1  0  0  0
  4  9  1  0  0  0
  4  6  1  0  0  0
  4  5  2  0  0  0
  6  7  1  0  0  0
  7  8  1  0  0  0
  7 24  1  0  0  0
  7 25  1  0  0  0
  8 26  1  0  0  0
  8 27  1  0  0  0
  8 28  1  0  0  0
  9 10  1  0  0  0
 10 17  1  0  0  0
 10 11  2  0  0  0
 11 12  1  0  0  0
 12 14  2  0  0  0
 12 13  1  0  0  0
 14 16  1  0  0  0
 14 15  1  0  0  0
 16 17  2  0  0  0
 16 29  1  0  0  0
 17 18  1  0  0  0
M  END