382
 OpenBabel11300911593D

 19 19  0  0  0  0  0  0  0  0999 V2000
    2.8708   -1.0234    0.2604 O   0  0  0  0  0
    2.2198    0.0130    0.2931 C   0  0  0  0  0
    2.8482    1.3326    0.0811 C   0  0  0  0  0
    4.2254    1.4181   -0.1648 C   0  0  0  0  0
    4.8150    2.6655   -0.3640 C   0  0  0  0  0
    6.1446    2.8971   -0.6123 O   0  0  0  0  0
    6.9952    1.7556   -0.6616 C   0  0  0  0  0
    4.0143    3.8168   -0.3149 C   0  0  0  0  0
    4.6052    5.0385   -0.5130 O   0  0  0  0  0
    2.6425    3.7281   -0.0696 C   0  0  0  0  0
    1.5437    5.2705    0.0014 Br  0  0  0  0  0
    2.0522    2.4801    0.1303 C   0  0  0  0  0
    1.1335    0.0046    0.4827 H   0  0  0  0  0
    4.8052    0.4997   -0.1945 H   0  0  0  0  0
    8.0123    2.1065   -0.8607 H   0  0  0  0  0
    6.7077    1.0853   -1.4781 H   0  0  0  0  0
    7.0058    1.2303    0.2990 H   0  0  0  0  0
    5.5526    4.8517   -0.6636 H   0  0  0  0  0
    0.9847    2.4074    0.3215 H   0  0  0  0  0
  1  2  2  0  0  0
  2  3  1  0  0  0
  2 13  1  0  0  0
  3  4  2  0  0  0
  3 12  1  0  0  0
  4  5  1  0  0  0
  4 14  1  0  0  0
  5  8  2  0  0  0
  5  6  1  0  0  0
  6  7  1  0  0  0
  7 15  1  0  0  0
  7 16  1  0  0  0
  7 17  1  0  0  0
  8 10  1  0  0  0
  8  9  1  0  0  0
  9 18  1  0  0  0
 10 12  2  0  0  0
 10 11  1  0  0  0
 12 19  1  0  0  0
M  END