383
 OpenBabel11300911223D

 25 25  0  0  0  0  0  0  0  0999 V2000
    2.4243   -0.7575    1.6273 O   0  0  0  0  0
    2.2445   -0.3307    0.4996 C   0  0  0  0  0
    3.0913   -0.4310   -0.5544 O   0  0  0  0  0
    4.3344   -1.1162   -0.3000 C   0  0  0  0  0
    5.3487   -0.1532    0.3284 C   0  0  0  0  0
    5.7491    0.9685   -0.6297 C   0  0  0  0  0
    6.2632    0.4161   -1.9558 C   0  0  0  0  0
    5.2581   -0.5352   -2.5978 C   0  0  0  0  0
    4.8497   -1.6545   -1.6396 C   0  0  0  0  0
    1.0425    0.3999    0.0448 C   0  0  0  0  0
    0.0309    0.6474    0.8862 C   0  0  0  0  0
    4.1570   -1.9689    0.3676 H   0  0  0  0  0
    6.2448   -0.7135    0.6219 H   0  0  0  0  0
    4.9357    0.2975    1.2375 H   0  0  0  0  0
    6.5243    1.5883   -0.1650 H   0  0  0  0  0
    4.8883    1.6226   -0.8144 H   0  0  0  0  0
    7.2092   -0.1134   -1.7871 H   0  0  0  0  0
    6.4788    1.2433   -2.6416 H   0  0  0  0  0
    5.6915   -0.9698   -3.5055 H   0  0  0  0  0
    4.3699    0.0277   -2.9091 H   0  0  0  0  0
    4.0718   -2.2594   -2.1204 H   0  0  0  0  0
    5.7119   -2.3086   -1.4610 H   0  0  0  0  0
    1.0139    0.7240   -0.9881 H   0  0  0  0  0
    0.0608    0.3216    1.9229 H   0  0  0  0  0
   -0.8511    1.1836    0.5527 H   0  0  0  0  0
  1  2  2  0  0  0
  2 10  1  0  0  0
  2  3  1  0  0  0
  3  4  1  0  0  0
  4  5  1  0  0  0
  4  9  1  0  0  0
  4 12  1  0  0  0
  5  6  1  0  0  0
  5 13  1  0  0  0
  5 14  1  0  0  0
  6  7  1  0  0  0
  6 15  1  0  0  0
  6 16  1  0  0  0
  7  8  1  0  0  0
  7 17  1  0  0  0
  7 18  1  0  0  0
  8  9  1  0  0  0
  8 19  1  0  0  0
  8 20  1  0  0  0
  9 21  1  0  0  0
  9 22  1  0  0  0
 10 11  2  0  0  0
 10 23  1  0  0  0
 11 24  1  0  0  0
 11 25  1  0  0  0
M  END