384
 OpenBabel11300911223D

 14 14  0  0  0  0  0  0  0  0999 V2000
    0.9964   -0.0674    0.1107 O   0  0  0  0  0
    2.3549    0.0216   -0.0129 C   0  0  0  0  0
    3.0109    1.2445   -0.0672 C   0  0  0  0  0
    4.4058    1.2645   -0.1970 C   0  0  0  0  0
    5.1770    2.8109   -0.2617 Cl  0  0  0  0  0
    5.1288    0.0624   -0.2705 C   0  0  0  0  0
    6.8489    0.0287   -0.4329 Cl  0  0  0  0  0
    4.4569   -1.1609   -0.2133 C   0  0  0  0  0
    3.0753   -1.1682   -0.0849 C   0  0  0  0  0
    2.4211   -2.3649   -0.0302 O   0  0  0  0  0
    0.6240    0.8316    0.1398 H   0  0  0  0  0
    2.4598    2.1780   -0.0107 H   0  0  0  0  0
    4.9983   -2.1010   -0.2682 H   0  0  0  0  0
    1.4743   -2.1338    0.0588 H   0  0  0  0  0
  1  2  1  0  0  0
  1 11  1  0  0  0
  2  3  2  0  0  0
  2  9  1  0  0  0
  3  4  1  0  0  0
  3 12  1  0  0  0
  4  6  2  0  0  0
  4  5  1  0  0  0
  6  8  1  0  0  0
  6  7  1  0  0  0
  8  9  2  0  0  0
  8 13  1  0  0  0
  9 10  1  0  0  0
 10 14  1  0  0  0
M  END