387
 OpenBabel11300912003D

 22 21  0  0  0  0  0  0  0  0999 V2000
    2.7753   -1.3384   -0.0398 C   0  0  0  0  0
    2.3679   -0.1347    0.7974 C   0  0  0  0  0
    3.2213    1.1282    0.5419 C   0  0  0  0  0
    2.6201    2.3019    1.3291 C   0  0  0  0  0
    4.7358    0.9363    0.8158 C   0  0  0  0  0
    5.5636    2.1635    0.4270 C   0  0  0  0  0
    5.0102    0.5409    2.2582 C   0  0  0  0  0
    5.6433    1.2208    3.0601 O   0  0  0  0  0
    2.0679   -2.1595    0.1179 H   0  0  0  0  0
    3.7683   -1.7058    0.2337 H   0  0  0  0  0
    2.7748   -1.0932   -1.1066 H   0  0  0  0  0
    2.3896   -0.4072    1.8587 H   0  0  0  0  0
    1.3203    0.0946    0.5639 H   0  0  0  0  0
    3.1142    1.3745   -0.5240 H   0  0  0  0  0
    2.7060    2.1485    2.4092 H   0  0  0  0  0
    1.5569    2.4201    1.0921 H   0  0  0  0  0
    3.1084    3.2473    1.0755 H   0  0  0  0  0
    5.1064    0.1072    0.2012 H   0  0  0  0  0
    5.3704    3.0183    1.0838 H   0  0  0  0  0
    5.3568    2.4659   -0.6045 H   0  0  0  0  0
    6.6341    1.9408    0.5024 H   0  0  0  0  0
    4.6114   -0.4412    2.5639 H   0  0  0  0  0
  1  2  1  0  0  0
  1  9  1  0  0  0
  1 10  1  0  0  0
  1 11  1  0  0  0
  2  3  1  0  0  0
  2 12  1  0  0  0
  2 13  1  0  0  0
  3  5  1  0  0  0
  3  4  1  0  0  0
  3 14  1  0  0  0
  4 15  1  0  0  0
  4 16  1  0  0  0
  4 17  1  0  0  0
  5  7  1  0  0  0
  5  6  1  0  0  0
  5 18  1  0  0  0
  6 19  1  0  0  0
  6 20  1  0  0  0
  6 21  1  0  0  0
  7  8  2  0  0  0
  7 22  1  0  0  0
M  END