390
 OpenBabel11300911223D

 21 20  0  0  0  0  0  0  0  0999 V2000
    2.3575    1.1315    0.6505 O   0  0  0  0  0
    2.1665    0.0796    0.0580 C   0  0  0  0  0
    3.1099   -0.8561   -0.2169 O   0  0  0  0  0
    4.4480   -0.5514    0.2165 C   0  0  0  0  0
    5.1744   -1.8774    0.4053 C   0  0  0  0  0
    5.1413    0.2979   -0.8430 C   0  0  0  0  0
    0.8281   -0.3228   -0.4662 C   0  0  0  0  0
    0.6238   -1.4775   -1.1249 C   0  0  0  0  0
   -0.2746    0.6601   -0.2117 C   0  0  0  0  0
    4.4327   -0.0250    1.1786 H   0  0  0  0  0
    5.1859   -2.4568   -0.5247 H   0  0  0  0  0
    4.6577   -2.4910    1.1514 H   0  0  0  0  0
    6.2060   -1.7223    0.7358 H   0  0  0  0  0
    5.1383   -0.2092   -1.8144 H   0  0  0  0  0
    6.1769    0.5139   -0.5629 H   0  0  0  0  0
    4.6173    1.2488   -0.9852 H   0  0  0  0  0
    1.4220   -2.1889   -1.3121 H   0  0  0  0  0
   -0.3595   -1.7439   -1.4990 H   0  0  0  0  0
   -0.0322    1.6329   -0.6524 H   0  0  0  0  0
   -0.4293    0.7925    0.8642 H   0  0  0  0  0
   -1.2250    0.3303   -0.6451 H   0  0  0  0  0
  1  2  2  0  0  0
  2  7  1  0  0  0
  2  3  1  0  0  0
  3  4  1  0  0  0
  4  6  1  0  0  0
  4  5  1  0  0  0
  4 10  1  0  0  0
  5 11  1  0  0  0
  5 12  1  0  0  0
  5 13  1  0  0  0
  6 14  1  0  0  0
  6 15  1  0  0  0
  6 16  1  0  0  0
  7  9  1  0  0  0
  7  8  2  0  0  0
  8 17  1  0  0  0
  8 18  1  0  0  0
  9 19  1  0  0  0
  9 20  1  0  0  0
  9 21  1  0  0  0
M  END