391
 OpenBabel11300911223D

 19 18  0  0  0  0  0  0  0  0999 V2000
    1.4117   -0.2048   -0.1732 O   0  0  0  0  0
    2.8174   -0.1327    0.0484 C   0  0  0  0  0
    3.4429   -1.0818   -0.9284 C   0  0  0  0  0
    4.2247   -2.1174   -0.5950 C   0  0  0  0  0
    3.2708    1.3189   -0.1488 C   0  0  0  0  0
    4.7474    1.5410    0.1817 C   0  0  0  0  0
    5.1385    3.0015    0.0134 C   0  0  0  0  0
    0.9862    0.3188    0.5255 H   0  0  0  0  0
    3.0077   -0.4510    1.0802 H   0  0  0  0  0
    3.2170   -0.9100   -1.9787 H   0  0  0  0  0
    4.4660   -2.3427    0.4387 H   0  0  0  0  0
    4.6304   -2.7722   -1.3604 H   0  0  0  0  0
    2.6539    1.9707    0.4839 H   0  0  0  0  0
    3.0652    1.6364   -1.1799 H   0  0  0  0  0
    5.3821    0.9292   -0.4687 H   0  0  0  0  0
    4.9461    1.2331    1.2148 H   0  0  0  0  0
    4.9875    3.3305   -1.0197 H   0  0  0  0  0
    6.1944    3.1426    0.2640 H   0  0  0  0  0
    4.5446    3.6456    0.6697 H   0  0  0  0  0
  1  2  1  0  0  0
  1  8  1  0  0  0
  2  5  1  0  0  0
  2  3  1  0  0  0
  2  9  1  0  0  0
  3  4  2  0  0  0
  3 10  1  0  0  0
  4 11  1  0  0  0
  4 12  1  0  0  0
  5  6  1  0  0  0
  5 13  1  0  0  0
  5 14  1  0  0  0
  6  7  1  0  0  0
  6 15  1  0  0  0
  6 16  1  0  0  0
  7 17  1  0  0  0
  7 18  1  0  0  0
  7 19  1  0  0  0
M  END