392
 OpenBabel11300912003D

 13 13  0  0  0  0  0  0  0  0999 V2000
    0.9774    0.0393   -0.0041 O   0  0  0  0  0
    2.3457   -0.0038   -0.0011 C   0  0  0  0  0
    3.0094    1.2161   -0.0001 C   0  0  0  0  0
    4.4044    1.2423    0.0030 C   0  0  0  0  0
    5.1607    2.7992    0.0040 Cl  0  0  0  0  0
    5.1394    0.0439    0.0050 C   0  0  0  0  0
    6.8776    0.0940    0.0089 Cl  0  0  0  0  0
    4.4584   -1.1902    0.0040 C   0  0  0  0  0
    5.3438   -2.6879    0.0065 Cl  0  0  0  0  0
    3.0541   -1.2098    0.0009 C   0  0  0  0  0
    2.1438   -2.6854   -0.0005 Cl  0  0  0  0  0
    0.6442   -0.8791   -0.0044 H   0  0  0  0  0
    2.4355    2.1397   -0.0017 H   0  0  0  0  0
  1  2  1  0  0  0
  1 12  1  0  0  0
  2 10  1  0  0  0
  2  3  2  0  0  0
  3  4  1  0  0  0
  3 13  1  0  0  0
  4  6  2  0  0  0
  4  5  1  0  0  0
  6  8  1  0  0  0
  6  7  1  0  0  0
  8 10  2  0  0  0
  8  9  1  0  0  0
 10 11  1  0  0  0
M  END