396
 OpenBabel11300912003D

 15 16  0  0  0  0  0  0  0  0999 V2000
    1.7471    1.5378    0.0002 S   0  0  0  0  0
    2.4479   -0.0200    0.0006 C   0  0  0  0  0
    4.1764   -0.2736    0.0008 S   0  0  0  0  0
    1.6172   -1.0341    0.0012 N   0  0  0  0  0
    0.1785    0.8251    0.0003 C   0  0  0  0  0
   -1.0797    1.4505    0.0002 C   0  0  0  0  0
   -2.2183    0.6385    0.0004 C   0  0  0  0  0
   -2.1004   -0.7480    0.0008 C   0  0  0  0  0
   -3.5217   -1.7202    0.0011 Cl  0  0  0  0  0
    0.3135   -0.5662    0.0007 C   0  0  0  0  0
   -0.8475   -1.3644    0.0010 C   0  0  0  0  0
    4.5305    1.0184    0.0009 H   0  0  0  0  0
   -1.1682    2.5329   -0.0002 H   0  0  0  0  0
   -3.2019    1.1023    0.0003 H   0  0  0  0  0
   -0.7515   -2.4456    0.0013 H   0  0  0  0  0
  1  5  1  0  0  0
  1  2  1  0  0  0
  2  4  2  0  0  0
  2  3  1  0  0  0
  3 12  1  0  0  0
  4 10  1  0  0  0
  5  6  2  0  0  0
  5 10  1  0  0  0
  6  7  1  0  0  0
  6 13  1  0  0  0
  7  8  2  0  0  0
  7 14  1  0  0  0
  8 11  1  0  0  0
  8  9  1  0  0  0
 10 11  2  0  0  0
 11 15  1  0  0  0
M  END