400
 OpenBabel11300912003D

 15 15  0  0  0  0  0  0  0  0999 V2000
    1.0411   -0.0710    0.0108 C   0  0  0  0  0
    2.5372    0.0067   -0.0186 C   0  0  0  0  0
    3.1735    1.2238    0.0175 C   0  0  0  0  0
    4.5433    1.1609   -0.0141 C   0  0  0  0  0
    5.4823    2.5975    0.0399 Cl  0  0  0  0  0
    5.2630    0.0316   -0.0787 N   0  0  0  0  0
    4.5539   -1.0909   -0.1305 C   0  0  0  0  0
    5.2446   -2.2827   -0.1876 N   0  0  0  0  0
    3.2188   -1.1558   -0.0852 N   0  0  0  0  0
    0.7041   -1.1127    0.0025 H   0  0  0  0  0
    0.6193    0.4309   -0.8657 H   0  0  0  0  0
    0.6544    0.4040    0.9180 H   0  0  0  0  0
    2.6388    2.1614    0.0698 H   0  0  0  0  0
    4.6766   -3.0269    0.1918 H   0  0  0  0  0
    6.1718   -2.1635    0.1955 H   0  0  0  0  0
  1  2  1  0  0  0
  1 10  1  0  0  0
  1 11  1  0  0  0
  1 12  1  0  0  0
  2  9  1  0  0  0
  2  3  2  0  0  0
  3  4  1  0  0  0
  3 13  1  0  0  0
  4  6  2  0  0  0
  4  5  1  0  0  0
  6  7  1  0  0  0
  7  9  2  0  0  0
  7  8  1  0  0  0
  8 14  1  0  0  0
  8 15  1  0  0  0
M  END