403
 OpenBabel11300911223D

 19 18  0  0  0  0  0  0  0  0999 V2000
    1.0100   -0.0012   -0.0135 C   0  0  0  0  0
    2.5501   -0.0376    0.0103 C   0  0  0  0  0
    3.0019   -0.7856    1.2772 C   0  0  0  0  0
    3.0433   -0.8009   -1.2319 C   0  0  0  0  0
    3.0714    1.4227    0.0036 C   0  0  0  0  0
    4.5273    1.5352    0.0010 N   0  0  0  0  0
    0.6400    0.5125   -0.9080 H   0  0  0  0  0
    0.6135    0.5248    0.8621 H   0  0  0  0  0
    0.5886   -1.0126   -0.0132 H   0  0  0  0  0
    2.7003   -0.2462    2.1819 H   0  0  0  0  0
    4.0889   -0.9138    1.3080 H   0  0  0  0  0
    2.5566   -1.7859    1.3230 H   0  0  0  0  0
    2.7482   -0.2869   -2.1534 H   0  0  0  0  0
    2.6217   -1.8119   -1.2657 H   0  0  0  0  0
    4.1339   -0.9015   -1.2383 H   0  0  0  0  0
    2.6825    1.9609    0.8766 H   0  0  0  0  0
    2.6904    1.9429   -0.8835 H   0  0  0  0  0
    4.9052    1.1496    0.8648 H   0  0  0  0  0
    4.7882    2.5204   -0.0049 H   0  0  0  0  0
  1  2  1  0  0  0
  1  7  1  0  0  0
  1  8  1  0  0  0
  1  9  1  0  0  0
  2  5  1  0  0  0
  2  4  1  0  0  0
  2  3  1  0  0  0
  3 10  1  0  0  0
  3 11  1  0  0  0
  3 12  1  0  0  0
  4 13  1  0  0  0
  4 14  1  0  0  0
  4 15  1  0  0  0
  5  6  1  0  0  0
  5 16  1  0  0  0
  5 17  1  0  0  0
  6 18  1  0  0  0
  6 19  1  0  0  0
M  END