408
 OpenBabel11300912003D

 16 16  0  0  0  0  0  0  0  0999 V2000
    1.9194   -0.5460    1.1375 O   0  0  0  0  0
    2.1594   -0.0583    0.0275 N   0  0  0  0  0
    1.8668   -0.5430   -1.0713 O   0  0  0  0  0
    2.8469    1.2055    0.0119 C   0  0  0  0  0
    4.2457    1.2088   -0.0143 C   0  0  0  0  0
    4.9247    2.4305   -0.0370 C   0  0  0  0  0
    4.2111    3.6325   -0.0357 C   0  0  0  0  0
    2.8128    3.5966   -0.0077 C   0  0  0  0  0
    2.0897    4.8406   -0.0089 N   0  0  0  0  0
    1.7412    5.2777   -1.1114 O   0  0  0  0  0
    1.8780    5.3602    1.0924 O   0  0  0  0  0
    5.1187    5.0997   -0.0743 Cl  0  0  0  0  0
    5.1944   -0.2325   -0.0213 Cl  0  0  0  0  0
    2.1023    2.3908    0.0180 C   0  0  0  0  0
    0.3700    2.3663    0.0615 Cl  0  0  0  0  0
    6.0145    2.4458   -0.0579 H   0  0  0  0  0
  1  2  2  0  0  0
  2  4  1  0  0  0
  2  3  2  0  0  0
  4  5  2  0  0  0
  4 14  1  0  0  0
  5  6  1  0  0  0
  5 13  1  0  0  0
  6  7  2  0  0  0
  6 16  1  0  0  0
  7  8  1  0  0  0
  7 12  1  0  0  0
  8 14  2  0  0  0
  8  9  1  0  0  0
  9 11  2  0  0  0
  9 10  2  0  0  0
 14 15  1  0  0  0
M  END