409
 OpenBabel11300911233D

 16 16  0  0  0  0  0  0  0  0999 V2000
    2.4355   -0.9480    0.0772 O   0  0  0  0  0
    1.9533    0.1685    0.2312 C   0  0  0  0  0
    2.7709    1.3873    0.0480 C   0  0  0  0  0
    2.2343    2.6702    0.2200 C   0  0  0  0  0
    3.0477    3.7958    0.0356 C   0  0  0  0  0
    4.3920    3.6488   -0.3193 C   0  0  0  0  0
    4.9253    2.3652   -0.4906 C   0  0  0  0  0
    6.3381    2.2085   -0.8635 N   0  0  0  0  0
    6.7731    1.0582   -1.0034 O   0  0  0  0  0
    7.0077    3.2396   -1.0151 O   0  0  0  0  0
    0.5881    2.9502    0.6572 Cl  0  0  0  0  0
    4.1215    1.2326   -0.3088 C   0  0  0  0  0
    0.8951    0.2857    0.5107 H   0  0  0  0  0
    2.6394    4.7966    0.1672 H   0  0  0  0  0
    5.0039    4.5394   -0.4571 H   0  0  0  0  0
    4.5317    0.2311   -0.4408 H   0  0  0  0  0
  1  2  2  0  0  0
  2  3  1  0  0  0
  2 13  1  0  0  0
  3  4  2  0  0  0
  3 12  1  0  0  0
  4  5  1  0  0  0
  4 11  1  0  0  0
  5  6  2  0  0  0
  5 14  1  0  0  0
  6  7  1  0  0  0
  6 15  1  0  0  0
  7 12  2  0  0  0
  7  8  1  0  0  0
  8 10  2  0  0  0
  8  9  2  0  0  0
 12 16  1  0  0  0
M  END