413
 OpenBabel11300912003D

 47 46  0  0  0  0  0  0  0  0999 V2000
    6.7862    4.1975   -0.5013 C   0  0  0  0  0
    5.5788    3.3323   -0.8019 C   0  0  0  0  0
    5.6697    2.1435   -0.0215 O   0  0  0  0  0
    4.6123    1.2131   -0.3080 C   0  0  0  0  0
    5.0836    0.2688   -1.4598 C   0  0  0  0  0
    4.0308   -0.4454   -2.2353 N   0  0  0  0  0
    3.1763    0.5103   -2.9513 C   0  0  0  0  0
    4.6856   -1.3709   -3.2067 C   0  0  0  0  0
    3.8051   -2.5449   -3.7251 C   0  0  0  0  0
    2.7726   -2.0445   -4.5763 O   0  0  0  0  0
    1.7088   -2.9743   -4.7405 C   0  0  0  0  0
    0.6702   -2.3549   -5.6532 C   0  0  0  0  0
    4.6507   -3.4113   -4.4898 O   0  0  0  0  0
    4.7042   -4.7360   -3.9771 C   0  0  0  0  0
    5.5560   -5.5693   -4.9153 C   0  0  0  0  0
    4.3468    0.4891    0.8985 O   0  0  0  0  0
    3.0995   -0.1966    0.8823 C   0  0  0  0  0
    2.8356   -0.7367    2.2753 C   0  0  0  0  0
    6.7603    5.1196   -1.0887 H   0  0  0  0  0
    7.7122    3.6592   -0.7288 H   0  0  0  0  0
    6.8200    4.4563    0.5619 H   0  0  0  0  0
    5.5570    3.0887   -1.8693 H   0  0  0  0  0
    4.6623    3.8732   -0.5419 H   0  0  0  0  0
    3.7192    1.7887   -0.5709 H   0  0  0  0  0
    5.7319   -0.4847   -0.9913 H   0  0  0  0  0
    5.7210    0.8272   -2.1573 H   0  0  0  0  0
    3.7498    1.1396   -3.6419 H   0  0  0  0  0
    2.6434    1.1646   -2.2557 H   0  0  0  0  0
    2.3869    0.0092   -3.5147 H   0  0  0  0  0
    5.5517   -1.8414   -2.7210 H   0  0  0  0  0
    5.0929   -0.8072   -4.0572 H   0  0  0  0  0
    3.3694   -3.0608   -2.8578 H   0  0  0  0  0
    1.2578   -3.1933   -3.7664 H   0  0  0  0  0
    2.0802   -3.9032   -5.1831 H   0  0  0  0  0
    0.3169   -1.4012   -5.2474 H   0  0  0  0  0
   -0.1852   -3.0241   -5.7806 H   0  0  0  0  0
    1.1019   -2.1430   -6.6368 H   0  0  0  0  0
    3.6965   -5.1605   -3.9217 H   0  0  0  0  0
    5.1470   -4.7266   -2.9758 H   0  0  0  0  0
    5.1491   -5.5421   -5.9326 H   0  0  0  0  0
    5.6036   -6.6102   -4.5823 H   0  0  0  0  0
    6.5741   -5.1689   -4.9705 H   0  0  0  0  0
    3.1352   -1.0309    0.1769 H   0  0  0  0  0
    2.2923    0.4875    0.5974 H   0  0  0  0  0
    3.6342   -1.4201    2.5814 H   0  0  0  0  0
    1.8813   -1.2699    2.3122 H   0  0  0  0  0
    2.8138    0.0773    3.0073 H   0  0  0  0  0
  1  2  1  0  0  0
  1 19  1  0  0  0
  1 20  1  0  0  0
  1 21  1  0  0  0
  2  3  1  0  0  0
  2 22  1  0  0  0
  2 23  1  0  0  0
  3  4  1  0  0  0
  4 16  1  0  0  0
  4  5  1  0  0  0
  4 24  1  0  0  0
  5  6  1  0  0  0
  5 25  1  0  0  0
  5 26  1  0  0  0
  6  8  1  0  0  0
  6  7  1  0  0  0
  7 27  1  0  0  0
  7 28  1  0  0  0
  7 29  1  0  0  0
  8  9  1  0  0  0
  8 30  1  0  0  0
  8 31  1  0  0  0
  9 13  1  0  0  0
  9 10  1  0  0  0
  9 32  1  0  0  0
 10 11  1  0  0  0
 11 12  1  0  0  0
 11 33  1  0  0  0
 11 34  1  0  0  0
 12 35  1  0  0  0
 12 36  1  0  0  0
 12 37  1  0  0  0
 13 14  1  0  0  0
 14 15  1  0  0  0
 14 38  1  0  0  0
 14 39  1  0  0  0
 15 40  1  0  0  0
 15 41  1  0  0  0
 15 42  1  0  0  0
 16 17  1  0  0  0
 17 18  1  0  0  0
 17 43  1  0  0  0
 17 44  1  0  0  0
 18 45  1  0  0  0
 18 46  1  0  0  0
 18 47  1  0  0  0
M  END