415
 OpenBabel11300911233D

 20 20  0  0  0  0  0  0  0  0999 V2000
   -0.3752   -0.8124    0.2043 N   0  0  0  0  0
   -0.8918   -1.7478    1.2128 C   0  0  0  0  0
   -0.4794   -3.1988    0.9446 C   0  0  0  0  0
   -1.1930   -4.2868    2.1639 Cl  0  0  0  0  0
   -0.8960    0.5427    0.4035 C   0  0  0  0  0
   -0.0079    1.3717   -0.5079 C   0  0  0  0  0
    1.3328    0.6492   -0.5021 C   0  0  0  0  0
    1.0819   -0.6627    0.2331 C   0  0  0  0  0
   -1.9885   -1.6996    1.2006 H   0  0  0  0  0
   -0.5713   -1.4487    2.2195 H   0  0  0  0  0
    0.6058   -3.3267    0.9970 H   0  0  0  0  0
   -0.8246   -3.5321   -0.0392 H   0  0  0  0  0
   -0.7803    0.8739    1.4441 H   0  0  0  0  0
   -1.9508    0.6271    0.1224 H   0  0  0  0  0
   -0.4141    1.3885   -1.5262 H   0  0  0  0  0
    0.0811    2.4070   -0.1646 H   0  0  0  0  0
    1.6699    0.4724   -1.5296 H   0  0  0  0  0
    2.1012    1.2405    0.0072 H   0  0  0  0  0
    1.5913   -1.4950   -0.2631 H   0  0  0  0  0
    1.4615   -0.5851    1.2596 H   0  0  0  0  0
  1  8  1  0  0  0
  1  5  1  0  0  0
  1  2  1  0  0  0
  2  3  1  0  0  0
  2  9  1  0  0  0
  2 10  1  0  0  0
  3  4  1  0  0  0
  3 11  1  0  0  0
  3 12  1  0  0  0
  5  6  1  0  0  0
  5 13  1  0  0  0
  5 14  1  0  0  0
  6  7  1  0  0  0
  6 15  1  0  0  0
  6 16  1  0  0  0
  7  8  1  0  0  0
  7 17  1  0  0  0
  7 18  1  0  0  0
  8 19  1  0  0  0
  8 20  1  0  0  0
M  END