427
 OpenBabel11300912013D

 38 38  0  0  0  0  0  0  0  0999 V2000
    0.9641    0.6069    1.5394 C   0  0  0  0  0
    2.4485    0.5231    1.1999 C   0  0  0  0  0
    3.1036    1.7558    0.6004 C   0  0  0  0  0
    2.3559    2.9188    0.3505 C   0  0  0  0  0
    2.9532    4.0665   -0.1671 C   0  0  0  0  0
    4.3179    4.0854   -0.4315 C   0  0  0  0  0
    5.1102    2.9527   -0.1949 C   0  0  0  0  0
    6.5943    3.0575   -0.4777 C   0  0  0  0  0
    6.9622    2.6751   -1.9023 C   0  0  0  0  0
    4.4921    1.7782    0.2983 C   0  0  0  0  0
    5.2847    0.6055    0.4329 N   0  0  0  0  0
    5.8710    0.3127    1.7359 C   0  0  0  0  0
    6.2782    1.5108    2.3893 O   0  0  0  0  0
    6.9441    1.2398    3.6122 C   0  0  0  0  0
    5.2369   -0.4367   -0.4915 C   0  0  0  0  0
    5.7458   -1.5365   -0.2409 O   0  0  0  0  0
    4.6053   -0.1774   -1.8555 C   0  0  0  0  0
    3.3522   -1.3981   -2.1792 Cl  0  0  0  0  0
    0.6241   -0.3402    1.9746 H   0  0  0  0  0
    0.3569    0.7971    0.6466 H   0  0  0  0  0
    0.7645    1.3966    2.2711 H   0  0  0  0  0
    2.5806   -0.3172    0.5117 H   0  0  0  0  0
    2.9707    0.2789    2.1306 H   0  0  0  0  0
    1.2895    2.9606    0.5572 H   0  0  0  0  0
    2.3525    4.9548   -0.3502 H   0  0  0  0  0
    4.7668    4.9981   -0.8182 H   0  0  0  0  0
    7.1745    2.4505    0.2225 H   0  0  0  0  0
    6.9174    4.0900   -0.2913 H   0  0  0  0  0
    6.8222    1.6051   -2.0743 H   0  0  0  0  0
    8.0172    2.9018   -2.0895 H   0  0  0  0  0
    6.3605    3.2199   -2.6367 H   0  0  0  0  0
    6.7454   -0.3334    1.5935 H   0  0  0  0  0
    5.1379   -0.2259    2.3457 H   0  0  0  0  0
    7.3044    2.1871    4.0231 H   0  0  0  0  0
    7.8051    0.5839    3.4503 H   0  0  0  0  0
    6.2530    0.7869    4.3293 H   0  0  0  0  0
    5.3803   -0.2738   -2.6196 H   0  0  0  0  0
    4.1438    0.8040   -1.9644 H   0  0  0  0  0
  1  2  1  0  0  0
  1 19  1  0  0  0
  1 20  1  0  0  0
  1 21  1  0  0  0
  2  3  1  0  0  0
  2 22  1  0  0  0
  2 23  1  0  0  0
  3 10  1  0  0  0
  3  4  2  0  0  0
  4  5  1  0  0  0
  4 24  1  0  0  0
  5  6  2  0  0  0
  5 25  1  0  0  0
  6  7  1  0  0  0
  6 26  1  0  0  0
  7 10  2  0  0  0
  7  8  1  0  0  0
  8  9  1  0  0  0
  8 27  1  0  0  0
  8 28  1  0  0  0
  9 29  1  0  0  0
  9 30  1  0  0  0
  9 31  1  0  0  0
 10 11  1  0  0  0
 11 15  1  0  0  0
 11 12  1  0  0  0
 12 13  1  0  0  0
 12 32  1  0  0  0
 12 33  1  0  0  0
 13 14  1  0  0  0
 14 34  1  0  0  0
 14 35  1  0  0  0
 14 36  1  0  0  0
 15 17  1  0  0  0
 15 16  2  0  0  0
 17 18  1  0  0  0
 17 37  1  0  0  0
 17 38  1  0  0  0
M  END