428
 OpenBabel11300911233D

 38 38  0  0  0  0  0  0  0  0999 V2000
    0.9416   -0.1708    0.6538 N   0  0  0  0  0
    2.3098   -0.2086    0.3559 C   0  0  0  0  0
    2.7427   -0.1712   -0.9709 C   0  0  0  0  0
    4.1045   -0.0895   -1.2777 C   0  0  0  0  0
    5.0563    0.0066   -0.2569 C   0  0  0  0  0
    6.5272    0.0707   -0.5817 C   0  0  0  0  0
    7.1502   -1.3260   -0.6334 C   0  0  0  0  0
    8.6437   -1.2581   -0.9551 C   0  0  0  0  0
    9.2632   -2.6556   -1.0120 C   0  0  0  0  0
   10.7594   -2.5885   -1.3223 C   0  0  0  0  0
   11.3780   -3.9857   -1.3918 C   0  0  0  0  0
   12.8766   -3.9141   -1.6836 C   0  0  0  0  0
   13.4968   -5.2999   -1.7636 C   0  0  0  0  0
    4.6192    0.0291    1.0720 C   0  0  0  0  0
    3.2557   -0.0532    1.3708 C   0  0  0  0  0
    0.3610   -0.5984   -0.0606 H   0  0  0  0  0
    0.7212   -0.5156    1.5828 H   0  0  0  0  0
    2.0219   -0.2093   -1.7828 H   0  0  0  0  0
    4.4142   -0.0897   -2.3201 H   0  0  0  0  0
    7.0396    0.6873    0.1677 H   0  0  0  0  0
    6.6675    0.5838   -1.5416 H   0  0  0  0  0
    6.6389   -1.9337   -1.3908 H   0  0  0  0  0
    7.0058   -1.8342    0.3286 H   0  0  0  0  0
    9.1566   -0.6592   -0.1928 H   0  0  0  0  0
    8.7901   -0.7521   -1.9171 H   0  0  0  0  0
    8.7546   -3.2518   -1.7795 H   0  0  0  0  0
    9.1101   -3.1651   -0.0527 H   0  0  0  0  0
   11.2677   -1.9994   -0.5493 H   0  0  0  0  0
   10.9139   -2.0712   -2.2770 H   0  0  0  0  0
   10.8781   -4.5702   -2.1738 H   0  0  0  0  0
   11.2133   -4.5092   -0.4421 H   0  0  0  0  0
   13.3813   -3.3396   -0.8982 H   0  0  0  0  0
   13.0474   -3.3889   -2.6304 H   0  0  0  0  0
   13.3681   -5.8428   -0.8218 H   0  0  0  0  0
   14.5695   -5.2235   -1.9677 H   0  0  0  0  0
   13.0397   -5.8886   -2.5654 H   0  0  0  0  0
    5.3354    0.1225    1.8848 H   0  0  0  0  0
    2.9398    0.0009    2.4090 H   0  0  0  0  0
  1  2  1  0  0  0
  1 16  1  0  0  0
  1 17  1  0  0  0
  2  3  2  0  0  0
  2 15  1  0  0  0
  3  4  1  0  0  0
  3 18  1  0  0  0
  4  5  2  0  0  0
  4 19  1  0  0  0
  5 14  1  0  0  0
  5  6  1  0  0  0
  6  7  1  0  0  0
  6 20  1  0  0  0
  6 21  1  0  0  0
  7  8  1  0  0  0
  7 22  1  0  0  0
  7 23  1  0  0  0
  8  9  1  0  0  0
  8 24  1  0  0  0
  8 25  1  0  0  0
  9 10  1  0  0  0
  9 26  1  0  0  0
  9 27  1  0  0  0
 10 11  1  0  0  0
 10 28  1  0  0  0
 10 29  1  0  0  0
 11 12  1  0  0  0
 11 30  1  0  0  0
 11 31  1  0  0  0
 12 13  1  0  0  0
 12 32  1  0  0  0
 12 33  1  0  0  0
 13 34  1  0  0  0
 13 35  1  0  0  0
 13 36  1  0  0  0
 14 15  2  0  0  0
 14 37  1  0  0  0
 15 38  1  0  0  0
M  END