431
 OpenBabel11300912013D

 29 29  0  0  0  0  0  0  0  0999 V2000
    0.6927   -0.8534   -2.6800 O   0  0  0  0  0
    0.3903    0.2326   -2.1968 C   0  0  0  0  0
    1.4002    1.2745   -1.9258 C   0  0  0  0  0
    1.0373    2.4972   -1.3737 C   0  0  0  0  0
   -0.2744    2.7473   -1.0740 O   0  0  0  0  0
    2.0094    3.4780   -1.1241 C   0  0  0  0  0
    3.3720    3.2839   -1.4278 C   0  0  0  0  0
    4.3333    4.2631   -1.1915 N   0  0  0  0  0
    5.7341    4.0994   -1.6110 C   0  0  0  0  0
    5.9086    4.4844   -3.0736 C   0  0  0  0  0
    3.9993    5.5803   -0.6299 C   0  0  0  0  0
    3.9726    5.5293    0.8905 C   0  0  0  0  0
    3.6979    2.0302   -1.9812 C   0  0  0  0  0
    2.7371    1.0380   -2.2265 C   0  0  0  0  0
   -0.6567    0.4709   -1.9475 H   0  0  0  0  0
   -0.3540    3.6496   -0.7200 H   0  0  0  0  0
    1.6816    4.4116   -0.6819 H   0  0  0  0  0
    6.1068    3.0872   -1.4219 H   0  0  0  0  0
    6.3788    4.7461   -1.0015 H   0  0  0  0  0
    5.3219    3.8386   -3.7337 H   0  0  0  0  0
    6.9600    4.4022   -3.3646 H   0  0  0  0  0
    5.5877    5.5166   -3.2488 H   0  0  0  0  0
    3.0576    5.9706   -1.0308 H   0  0  0  0  0
    4.7543    6.3174   -0.9331 H   0  0  0  0  0
    3.1839    4.8670    1.2591 H   0  0  0  0  0
    3.7934    6.5288    1.2985 H   0  0  0  0  0
    4.9258    5.1656    1.2880 H   0  0  0  0  0
    4.7204    1.7790   -2.2457 H   0  0  0  0  0
    3.0444    0.0864   -2.6557 H   0  0  0  0  0
  1  2  2  0  0  0
  2  3  1  0  0  0
  2 15  1  0  0  0
  3  4  2  0  0  0
  3 14  1  0  0  0
  4  6  1  0  0  0
  4  5  1  0  0  0
  5 16  1  0  0  0
  6  7  2  0  0  0
  6 17  1  0  0  0
  7 13  1  0  0  0
  7  8  1  0  0  0
  8 11  1  0  0  0
  8  9  1  0  0  0
  9 10  1  0  0  0
  9 18  1  0  0  0
  9 19  1  0  0  0
 10 20  1  0  0  0
 10 21  1  0  0  0
 10 22  1  0  0  0
 11 12  1  0  0  0
 11 23  1  0  0  0
 11 24  1  0  0  0
 12 25  1  0  0  0
 12 26  1  0  0  0
 12 27  1  0  0  0
 13 14  2  0  0  0
 13 28  1  0  0  0
 14 29  1  0  0  0
M  END