437
 OpenBabel11300912013D

 19 19  0  0  0  0  0  0  0  0999 V2000
    2.9930   -1.0793    0.5897 C   0  0  0  0  0
    2.4190    0.0517    0.1590 C   0  0  0  0  0
    3.1121    1.3391    0.0121 C   0  0  0  0  0
    2.3870    2.5221    0.1993 C   0  0  0  0  0
    2.9988    3.7699    0.0409 C   0  0  0  0  0
    4.3508    3.8599   -0.3135 C   0  0  0  0  0
    5.0703    2.6774   -0.5286 C   0  0  0  0  0
    4.4559    1.4308   -0.3691 C   0  0  0  0  0
    5.0073    5.1993   -0.4958 C   0  0  0  0  0
    4.8517    5.7476   -2.1764 Cl  0  0  0  0  0
    2.4088   -1.9899    0.6792 H   0  0  0  0  0
    4.0374   -1.1326    0.8774 H   0  0  0  0  0
    1.3597    0.0465   -0.0882 H   0  0  0  0  0
    1.3355    2.4847    0.4755 H   0  0  0  0  0
    2.4076    4.6709    0.1904 H   0  0  0  0  0
    6.1141    2.7161   -0.8336 H   0  0  0  0  0
    5.0385    0.5337   -0.5630 H   0  0  0  0  0
    6.0722    5.1507   -0.2462 H   0  0  0  0  0
    4.5508    5.9517    0.1554 H   0  0  0  0  0
  1  2  2  0  0  0
  1 11  1  0  0  0
  1 12  1  0  0  0
  2  3  1  0  0  0
  2 13  1  0  0  0
  3  4  2  0  0  0
  3  8  1  0  0  0
  4  5  1  0  0  0
  4 14  1  0  0  0
  5  6  2  0  0  0
  5 15  1  0  0  0
  6  7  1  0  0  0
  6  9  1  0  0  0
  7  8  2  0  0  0
  7 16  1  0  0  0
  8 17  1  0  0  0
  9 10  1  0  0  0
  9 18  1  0  0  0
  9 19  1  0  0  0
M  END