439
 OpenBabel11300911233D

 44 44  0  0  0  0  0  0  0  0999 V2000
    0.9330   -0.1953    0.0555 C   0  0  0  0  0
    2.4527   -0.1559    0.0707 C   0  0  0  0  0
    2.9763    1.2783    0.0059 C   0  0  0  0  0
    4.5058    1.3120    0.0117 C   0  0  0  0  0
    5.0322    2.7478   -0.0284 C   0  0  0  0  0
    6.5613    2.7790   -0.0328 C   0  0  0  0  0
    7.0882    4.2148   -0.0303 C   0  0  0  0  0
    8.6178    4.2469   -0.0386 C   0  0  0  0  0
    9.1440    5.6818    0.0188 C   0  0  0  0  0
   10.6735    5.7126    0.0107 C   0  0  0  0  0
   11.2009    7.1214    0.1202 C   0  0  0  0  0
   11.4422    7.6944    1.3737 C   0  0  0  0  0
   11.9159    9.0059    1.4739 C   0  0  0  0  0
   12.1103    9.7848    0.3315 C   0  0  0  0  0
   12.6989   11.0519    0.4329 N   0  0  0  0  0
   11.9234    9.1930   -0.9191 C   0  0  0  0  0
   11.4493    7.8819   -1.0275 C   0  0  0  0  0
    0.5799   -1.2303    0.1075 H   0  0  0  0  0
    0.5378    0.2525   -0.8622 H   0  0  0  0  0
    0.5172    0.3486    0.9101 H   0  0  0  0  0
    2.8355   -0.7317   -0.7797 H   0  0  0  0  0
    2.8153   -0.6435    0.9827 H   0  0  0  0  0
    2.5925    1.8484    0.8607 H   0  0  0  0  0
    2.6023    1.7667   -0.9022 H   0  0  0  0  0
    4.8885    0.7552   -0.8523 H   0  0  0  0  0
    4.8806    0.8097    0.9120 H   0  0  0  0  0
    4.6549    3.3000    0.8410 H   0  0  0  0  0
    4.6520    3.2549   -0.9235 H   0  0  0  0  0
    6.9370    2.2499   -0.9167 H   0  0  0  0  0
    6.9420    2.2483    0.8482 H   0  0  0  0  0
    6.7146    4.7399    0.8575 H   0  0  0  0  0
    6.7053    4.7504   -0.9076 H   0  0  0  0  0
    8.9903    3.7526   -0.9442 H   0  0  0  0  0
    9.0016    3.6817    0.8197 H   0  0  0  0  0
    8.7659    6.1727    0.9244 H   0  0  0  0  0
    8.7556    6.2513   -0.8347 H   0  0  0  0  0
   11.0567    5.2486   -0.9072 H   0  0  0  0  0
   11.0701    5.1123    0.8397 H   0  0  0  0  0
   11.2759    7.1200    2.2817 H   0  0  0  0  0
   12.1294    9.4151    2.4576 H   0  0  0  0  0
   12.5112   11.6496   -0.3657 H   0  0  0  0  0
   12.5056   11.5179    1.3137 H   0  0  0  0  0
   12.1430    9.7501   -1.8254 H   0  0  0  0  0
   11.2889    7.4557   -2.0149 H   0  0  0  0  0
  1  2  1  0  0  0
  1 18  1  0  0  0
  1 19  1  0  0  0
  1 20  1  0  0  0
  2  3  1  0  0  0
  2 21  1  0  0  0
  2 22  1  0  0  0
  3  4  1  0  0  0
  3 23  1  0  0  0
  3 24  1  0  0  0
  4  5  1  0  0  0
  4 25  1  0  0  0
  4 26  1  0  0  0
  5  6  1  0  0  0
  5 27  1  0  0  0
  5 28  1  0  0  0
  6  7  1  0  0  0
  6 29  1  0  0  0
  6 30  1  0  0  0
  7  8  1  0  0  0
  7 31  1  0  0  0
  7 32  1  0  0  0
  8  9  1  0  0  0
  8 33  1  0  0  0
  8 34  1  0  0  0
  9 10  1  0  0  0
  9 35  1  0  0  0
  9 36  1  0  0  0
 10 11  1  0  0  0
 10 37  1  0  0  0
 10 38  1  0  0  0
 11 12  2  0  0  0
 11 17  1  0  0  0
 12 13  1  0  0  0
 12 39  1  0  0  0
 13 14  2  0  0  0
 13 40  1  0  0  0
 14 16  1  0  0  0
 14 15  1  0  0  0
 15 41  1  0  0  0
 15 42  1  0  0  0
 16 17  2  0  0  0
 16 43  1  0  0  0
 17 44  1  0  0  0
M  END