440
 OpenBabel11300912013D

 33 33  0  0  0  0  0  0  0  0999 V2000
    2.3748    2.1306   -0.8736 O   0  0  0  0  0
    1.3879    2.5662   -1.7143 C   0  0  0  0  0
    0.1314    1.9845   -1.8672 C   0  0  0  0  0
   -0.7991    2.5443   -2.7521 C   0  0  0  0  0
   -0.4724    3.6592   -3.5268 C   0  0  0  0  0
   -1.4480    4.2784   -4.3170 N   0  0  0  0  0
    0.7606    4.2761   -3.3162 C   0  0  0  0  0
    1.6907    3.7252   -2.4291 C   0  0  0  0  0
    2.2768    0.7795   -0.4219 C   0  0  0  0  0
    3.5063    0.4544    0.4254 C   0  0  0  0  0
    3.5190    1.2506    1.7346 C   0  0  0  0  0
    4.7171    0.8756    2.6081 C   0  0  0  0  0
    4.6963    1.6427    3.9300 C   0  0  0  0  0
    5.8890    1.2856    4.8027 C   0  0  0  0  0
   -0.1712    1.1149   -1.2944 H   0  0  0  0  0
   -1.7873    2.0984   -2.8270 H   0  0  0  0  0
   -1.0623    4.8574   -5.0578 H   0  0  0  0  0
   -2.1590    3.6413   -4.6605 H   0  0  0  0  0
    1.0127    5.1936   -3.8407 H   0  0  0  0  0
    2.6537    4.2091   -2.2899 H   0  0  0  0  0
    2.2503    0.1035   -1.2852 H   0  0  0  0  0
    1.3763    0.6373    0.1856 H   0  0  0  0  0
    4.4164    0.6847   -0.1422 H   0  0  0  0  0
    3.5127   -0.6185    0.6487 H   0  0  0  0  0
    2.5906    1.0577    2.2865 H   0  0  0  0  0
    3.5473    2.3252    1.5174 H   0  0  0  0  0
    5.6471    1.0915    2.0692 H   0  0  0  0  0
    4.7023   -0.2020    2.8103 H   0  0  0  0  0
    3.7721    1.4172    4.4758 H   0  0  0  0  0
    4.7025    2.7220    3.7362 H   0  0  0  0  0
    5.9049    0.2145    5.0263 H   0  0  0  0  0
    5.8407    1.8301    5.7506 H   0  0  0  0  0
    6.8286    1.5483    4.3073 H   0  0  0  0  0
  1  9  1  0  0  0
  1  2  1  0  0  0
  2  3  2  0  0  0
  2  8  1  0  0  0
  3  4  1  0  0  0
  3 15  1  0  0  0
  4  5  2  0  0  0
  4 16  1  0  0  0
  5  7  1  0  0  0
  5  6  1  0  0  0
  6 17  1  0  0  0
  6 18  1  0  0  0
  7  8  2  0  0  0
  7 19  1  0  0  0
  8 20  1  0  0  0
  9 10  1  0  0  0
  9 21  1  0  0  0
  9 22  1  0  0  0
 10 11  1  0  0  0
 10 23  1  0  0  0
 10 24  1  0  0  0
 11 12  1  0  0  0
 11 25  1  0  0  0
 11 26  1  0  0  0
 12 13  1  0  0  0
 12 27  1  0  0  0
 12 28  1  0  0  0
 13 14  1  0  0  0
 13 29  1  0  0  0
 13 30  1  0  0  0
 14 31  1  0  0  0
 14 32  1  0  0  0
 14 33  1  0  0  0
M  END