441
 OpenBabel11300911233D

 20 20  0  0  0  0  0  0  0  0999 V2000
    1.8604    2.9146    1.5591 C   0  0  0  0  0
    3.1960    2.4059    1.5172 O   0  0  0  0  0
    3.6511    2.1557    0.2690 C   0  0  0  0  0
    3.0112    2.2136   -0.7669 O   0  0  0  0  0
    5.0465    1.6687    0.3299 C   0  0  0  0  0
    5.4066    0.6481   -0.5638 C   0  0  0  0  0
    6.7028    0.1201   -0.5516 C   0  0  0  0  0
    7.6484    0.6091    0.3508 C   0  0  0  0  0
    9.2402   -0.0401    0.3529 Cl  0  0  0  0  0
    7.3179    1.6293    1.2377 C   0  0  0  0  0
    6.0177    2.1551    1.2109 C   0  0  0  0  0
    5.7410    3.2802    2.0791 N   0  0  0  0  0
    5.9411    3.1176    3.2885 O   0  0  0  0  0
    5.3858    4.3346    1.5361 O   0  0  0  0  0
    1.1496    2.1216    1.3088 H   0  0  0  0  0
    1.7440    3.7676    0.8824 H   0  0  0  0  0
    1.6605    3.2564    2.5784 H   0  0  0  0  0
    4.6771    0.2568   -1.2731 H   0  0  0  0  0
    6.9673   -0.6711   -1.2506 H   0  0  0  0  0
    8.0640    2.0212    1.9262 H   0  0  0  0  0
  1  2  1  0  0  0
  1 15  1  0  0  0
  1 16  1  0  0  0
  1 17  1  0  0  0
  2  3  1  0  0  0
  3  5  1  0  0  0
  3  4  2  0  0  0
  5  6  2  0  0  0
  5 11  1  0  0  0
  6  7  1  0  0  0
  6 18  1  0  0  0
  7  8  2  0  0  0
  7 19  1  0  0  0
  8 10  1  0  0  0
  8  9  1  0  0  0
 10 11  2  0  0  0
 10 20  1  0  0  0
 11 12  1  0  0  0
 12 14  2  0  0  0
 12 13  2  0  0  0
M  END