443
 OpenBabel11300912013D

 46 48  0  0  0  0  0  0  0  0999 V2000
    0.8517    2.9638   -0.6877 C   0  0  0  0  0
    1.9812    3.2951   -1.6352 C   0  0  0  0  0
    2.7265    2.0674   -2.1075 C   0  0  0  0  0
    1.8617    4.4541   -2.6136 C   0  0  0  0  0
    0.6128    5.2310   -2.7057 C   0  0  0  0  0
   -0.2291    5.3082   -3.7486 C   0  0  0  0  0
    0.0424    4.4608   -5.2269 Cl  0  0  0  0  0
   -1.6496    6.2889   -3.6458 Cl  0  0  0  0  0
    2.7369    4.5971   -1.3827 C   0  0  0  0  0
    4.2126    4.6960   -1.5385 C   0  0  0  0  0
    4.7931    4.3347   -2.5491 O   0  0  0  0  0
    4.7909    5.2216   -0.4293 O   0  0  0  0  0
    6.2225    5.2936   -0.4655 C   0  0  0  0  0
    6.7092    6.6609   -0.0474 C   0  0  0  0  0
    5.9961    7.8290   -0.3497 C   0  0  0  0  0
    6.5096    9.0823   -0.0089 C   0  0  0  0  0
    7.7434    9.1821    0.6338 C   0  0  0  0  0
    8.4654    8.0298    0.9418 C   0  0  0  0  0
    9.6926    8.2228    1.5414 O   0  0  0  0  0
   10.1734    7.2114    2.3384 C   0  0  0  0  0
    9.4930    6.8018    3.4874 C   0  0  0  0  0
   10.0167    5.7713    4.2677 C   0  0  0  0  0
   11.2247    5.1701    3.9098 C   0  0  0  0  0
   11.9169    5.6050    2.7781 C   0  0  0  0  0
   11.3952    6.6343    1.9945 C   0  0  0  0  0
    7.9600    6.7766    0.5797 C   0  0  0  0  0
    0.3901    3.8554   -0.2516 H   0  0  0  0  0
    1.2226    2.3501    0.1404 H   0  0  0  0  0
    0.0728    2.3984   -1.2100 H   0  0  0  0  0
    3.3890    2.2721   -2.9536 H   0  0  0  0  0
    2.0204    1.2964   -2.4341 H   0  0  0  0  0
    3.3294    1.6547   -1.2917 H   0  0  0  0  0
    2.3934    4.3652   -3.5604 H   0  0  0  0  0
    0.3500    5.8111   -1.8223 H   0  0  0  0  0
    2.3619    5.2187   -0.5741 H   0  0  0  0  0
    6.6506    5.0645   -1.4479 H   0  0  0  0  0
    6.5848    4.5429    0.2462 H   0  0  0  0  0
    5.0398    7.7737   -0.8650 H   0  0  0  0  0
    5.9520    9.9826   -0.2541 H   0  0  0  0  0
    8.1448   10.1590    0.8893 H   0  0  0  0  0
    8.5572    7.2761    3.7692 H   0  0  0  0  0
    9.4849    5.4386    5.1552 H   0  0  0  0  0
   11.6313    4.3660    4.5182 H   0  0  0  0  0
   12.8625    5.1424    2.5075 H   0  0  0  0  0
   11.9306    6.9766    1.1135 H   0  0  0  0  0
    8.5422    5.8782    0.7714 H   0  0  0  0  0
  1  2  1  0  0  0
  1 27  1  0  0  0
  1 28  1  0  0  0
  1 29  1  0  0  0
  2  9  1  0  0  0
  2  4  1  0  0  0
  2  3  1  0  0  0
  3 30  1  0  0  0
  3 31  1  0  0  0
  3 32  1  0  0  0
  4  9  1  0  0  0
  4  5  1  0  0  0
  4 33  1  0  0  0
  5  6  2  0  0  0
  5 34  1  0  0  0
  6  8  1  0  0  0
  6  7  1  0  0  0
  9 10  1  0  0  0
  9 35  1  0  0  0
 10 12  1  0  0  0
 10 11  2  0  0  0
 12 13  1  0  0  0
 13 14  1  0  0  0
 13 36  1  0  0  0
 13 37  1  0  0  0
 14 15  2  0  0  0
 14 26  1  0  0  0
 15 16  1  0  0  0
 15 38  1  0  0  0
 16 17  2  0  0  0
 16 39  1  0  0  0
 17 18  1  0  0  0
 17 40  1  0  0  0
 18 26  2  0  0  0
 18 19  1  0  0  0
 19 20  1  0  0  0
 20 21  2  0  0  0
 20 25  1  0  0  0
 21 22  1  0  0  0
 21 41  1  0  0  0
 22 23  2  0  0  0
 22 42  1  0  0  0
 23 24  1  0  0  0
 23 43  1  0  0  0
 24 25  2  0  0  0
 24 44  1  0  0  0
 25 45  1  0  0  0
 26 46  1  0  0  0
M  END