446
 OpenBabel11300912023D

 28 28  0  0  0  0  0  0  0  0999 V2000
    1.0413   -0.0168    0.2400 N   0  0  0  0  0
    2.4067    0.0160    0.3080 C   0  0  0  0  0
    3.0456   -1.0089    0.5104 O   0  0  0  0  0
    3.0762    1.3253    0.0856 C   0  0  0  0  0
    2.4215    2.5435    0.2743 C   0  0  0  0  0
    3.1013    3.7472    0.0507 C   0  0  0  0  0
    4.4496    3.7712   -0.3589 C   0  0  0  0  0
    5.1626    5.1156   -0.5918 C   0  0  0  0  0
    5.1553    5.9406    0.7133 C   0  0  0  0  0
    6.6368    4.9731   -1.0335 C   0  0  0  0  0
    4.4297    5.9064   -1.6970 C   0  0  0  0  0
    5.0919    2.5337   -0.5289 C   0  0  0  0  0
    4.4168    1.3272   -0.3059 C   0  0  0  0  0
    0.4931    0.7361   -0.1477 H   0  0  0  0  0
    0.6135   -0.9323    0.2955 H   0  0  0  0  0
    1.3933    2.5835    0.6202 H   0  0  0  0  0
    2.5587    4.6769    0.2117 H   0  0  0  0  0
    4.1399    6.1872    1.0424 H   0  0  0  0  0
    5.6890    6.8894    0.5842 H   0  0  0  0  0
    5.6416    5.3925    1.5290 H   0  0  0  0  0
    6.7237    4.4245   -1.9786 H   0  0  0  0  0
    7.2356    4.4504   -0.2785 H   0  0  0  0  0
    7.0997    5.9553   -1.1876 H   0  0  0  0  0
    4.3925    5.3351   -2.6321 H   0  0  0  0  0
    4.9366    6.8557   -1.9060 H   0  0  0  0  0
    3.3983    6.1488   -1.4187 H   0  0  0  0  0
    6.1329    2.4700   -0.8349 H   0  0  0  0  0
    4.9460    0.3856   -0.4424 H   0  0  0  0  0
  1  2  1  0  0  0
  1 14  1  0  0  0
  1 15  1  0  0  0
  2  4  1  0  0  0
  2  3  2  0  0  0
  4  5  2  0  0  0
  4 13  1  0  0  0
  5  6  1  0  0  0
  5 16  1  0  0  0
  6  7  2  0  0  0
  6 17  1  0  0  0
  7 12  1  0  0  0
  7  8  1  0  0  0
  8 11  1  0  0  0
  8 10  1  0  0  0
  8  9  1  0  0  0
  9 18  1  0  0  0
  9 19  1  0  0  0
  9 20  1  0  0  0
 10 21  1  0  0  0
 10 22  1  0  0  0
 10 23  1  0  0  0
 11 24  1  0  0  0
 11 25  1  0  0  0
 11 26  1  0  0  0
 12 13  2  0  0  0
 12 27  1  0  0  0
 13 28  1  0  0  0
M  END