447
 OpenBabel11300911243D

 11 10  0  0  0  0  0  0  0  0999 V2000
    1.0006   -0.0588   -0.0008 C   0  0  0  0  0
    2.5200    0.0000    0.0000 C   0  0  0  0  0
    3.0024   -0.6785   -1.1559 O   0  0  0  0  0
    3.0020    1.3612    0.0000 C   0  0  0  0  0
    3.3993    2.4831    0.0000 C   0  0  0  0  0
    0.5780    0.4310    0.8837 H   0  0  0  0  0
    0.6572   -1.0997   -0.0207 H   0  0  0  0  0
    0.5833    0.4259   -0.8923 H   0  0  0  0  0
    2.8995   -0.5394    0.8739 H   0  0  0  0  0
    2.7968   -0.1140   -1.9204 H   0  0  0  0  0
    3.7608    3.4857    0.0016 H   0  0  0  0  0
  1  2  1  0  0  0
  1  6  1  0  0  0
  1  7  1  0  0  0
  1  8  1  0  0  0
  2  4  1  0  0  0
  2  3  1  0  0  0
  2  9  1  0  0  0
  3 10  1  0  0  0
  4  5  3  0  0  0
  5 11  1  0  0  0
M  END