AMF10
  Mrv1674 09121610113D          

 56 59  0  0  0  0            999 V2000
    0.0000    0.0000    0.0000 C   0  0  2  0  0  0  0  0  0  0  0  0
    1.5334    0.0000    0.0000 C   0  0  1  0  0  0  0  0  0  0  0  0
    2.0537    0.0000    1.4524 C   0  0  2  0  0  0  0  0  0  0  0  0
    1.5694    1.2754    2.1548 C   0  0  0  0  0  0  0  0  0  0  0  0
    0.1550    1.6175    1.9743 C   0  0  0  0  0  0  0  0  0  0  0  0
   -0.5575    1.0609    0.9476 C   0  0  0  0  0  0  0  0  0  0  0  0
   -0.5983   -1.3733    0.3607 C   0  0  0  0  0  0  0  0  0  0  0  0
    0.1803   -2.5910    0.1745 C   0  0  0  0  0  0  0  0  0  0  0  0
    1.6291   -2.5163   -0.1701 C   0  0  2  0  0  0  0  0  0  0  0  0
    1.9939   -1.1895   -0.8214 C   0  0  2  0  0  0  0  0  0  0  0  0
   -0.3690   -3.8317    0.3596 C   0  0  0  0  0  0  0  0  0  0  0  0
    0.3892   -5.0663    0.1476 C   0  0  0  0  0  0  0  0  0  0  0  0
    1.5205   -5.0208   -0.7010 C   0  0  0  0  0  0  0  0  0  0  0  0
    2.1362   -3.6808   -1.0648 C   0  0  2  0  0  0  0  0  0  0  0  0
   -0.0378   -6.3024    0.6743 C   0  0  0  0  0  0  0  0  0  0  0  0
    0.5645   -7.5071    0.2515 C   0  0  0  0  0  0  0  0  0  0  0  0
    1.5676   -7.4644   -0.6959 C   0  0  0  0  0  0  0  0  0  0  0  0
    2.0393   -6.2310   -1.1765 C   0  0  0  0  0  0  0  0  0  0  0  0
    3.4848   -0.2769    1.5322 N   0  0  1  0  0  0  0  0  0  0  0  0
    4.3303    0.7372    0.9394 C   0  0  0  0  0  0  0  0  0  0  0  0
    3.9109   -0.6551    2.8642 C   0  0  0  0  0  0  0  0  0  0  0  0
   -0.4889    2.6158    2.8664 C   0  0  0  0  0  0  0  0  0  0  0  0
    0.0254    2.8793    4.1078 N   0  0  0  0  0  0  0  0  0  0  0  0
   -1.5588    3.1885    2.5280 O   0  0  0  0  0  0  0  0  0  0  0  0
    2.3402    1.9523    2.8514 O   0  0  0  0  0  0  0  0  0  0  0  0
   -1.8188    1.3607    0.5797 O   0  0  0  0  0  0  0  0  0  0  0  0
   -0.3942    0.3229   -1.3289 O   0  0  0  0  0  0  0  0  0  0  0  0
   -1.7737   -1.3904    0.7713 O   0  0  0  0  0  0  0  0  0  0  0  0
    3.6649   -3.7506   -0.9004 C   0  0  0  0  0  0  0  0  0  0  0  0
    1.7951   -3.3404   -2.4056 O   0  0  0  0  0  0  0  0  0  0  0  0
    3.2391   -6.3174   -2.3870 Cl  0  0  0  0  0  0  0  0  0  0  0  0
   -1.0262   -6.4745    1.6015 O   0  0  0  0  0  0  0  0  0  0  0  0
   -1.6650   -4.0880    0.7017 O   0  0  0  0  0  0  0  0  0  0  0  0
    0.9496    2.6066    4.3406 H   0  0  0  0  0  0  0  0  0  0  0  0
   -0.3901    3.6117    4.6323 H   0  0  0  0  0  0  0  0  0  0  0  0
   -2.2359    2.0184    1.1734 H   0  0  0  0  0  0  0  0  0  0  0  0
   -1.3632    0.3299   -1.3506 H   0  0  0  0  0  0  0  0  0  0  0  0
   -2.2048   -3.2784    0.7094 H   0  0  0  0  0  0  0  0  0  0  0  0
   -1.3275   -5.6189    1.9424 H   0  0  0  0  0  0  0  0  0  0  0  0
    0.2061   -8.4593    0.6699 H   0  0  0  0  0  0  0  0  0  0  0  0
    2.0075   -8.4029   -1.0720 H   0  0  0  0  0  0  0  0  0  0  0  0
    4.1553   -3.8473   -1.8988 H   0  0  0  0  0  0  0  0  0  0  0  0
    3.9573   -4.6173   -0.2618 H   0  0  0  0  0  0  0  0  0  0  0  0
    4.0630   -2.8257   -0.4169 H   0  0  0  0  0  0  0  0  0  0  0  0
    2.1242   -4.0478   -2.9751 H   0  0  0  0  0  0  0  0  0  0  0  0
    2.1977   -2.6147    0.8043 H   0  0  0  0  0  0  0  0  0  0  0  0
    3.1018   -1.1353   -0.9789 H   0  0  0  0  0  0  0  0  0  0  0  0
    1.5078   -1.1268   -1.8349 H   0  0  0  0  0  0  0  0  0  0  0  0
    1.8757    0.9411   -0.5167 H   0  0  0  0  0  0  0  0  0  0  0  0
    1.5332   -0.8498    1.9987 H   0  0  0  0  0  0  0  0  0  0  0  0
    3.3086   -1.5382    3.2040 H   0  0  0  0  0  0  0  0  0  0  0  0
    4.9905   -0.9558    2.8175 H   0  0  0  0  0  0  0  0  0  0  0  0
    3.7998    0.1723    3.6168 H   0  0  0  0  0  0  0  0  0  0  0  0
    5.3905    0.3707    0.9610 H   0  0  0  0  0  0  0  0  0  0  0  0
    4.2805    1.7247    1.4742 H   0  0  0  0  0  0  0  0  0  0  0  0
    4.0276    0.8882   -0.1297 H   0  0  0  0  0  0  0  0  0  0  0  0
  1 27  1  6  0  0  0
  1  2  1  0  0  0  0
  1  7  1  0  0  0  0
  1  6  1  0  0  0  0
  2 49  1  6  0  0  0
  2  3  1  0  0  0  0
  3 19  1  0  0  0  0
  3 50  1  1  0  0  0
  3  4  1  0  0  0  0
  4 25  2  0  0  0  0
  5  4  1  0  0  0  0
  5 22  1  0  0  0  0
  6  5  2  0  0  0  0
  7 28  2  0  0  0  0
  8  7  1  0  0  0  0
  8 11  2  0  0  0  0
  9  8  1  0  0  0  0
  9 46  1  1  0  0  0
 10  2  1  0  0  0  0
 10  9  1  0  0  0  0
 11 33  1  0  0  0  0
 12 11  1  0  0  0  0
 12 15  1  0  0  0  0
 13 12  2  0  0  0  0
 14  9  1  0  0  0  0
 14 13  1  0  0  0  0
 14 30  1  6  0  0  0
 14 29  1  0  0  0  0
 15 32  1  0  0  0  0
 16 15  2  0  0  0  0
 16 40  1  0  0  0  0
 17 16  1  0  0  0  0
 18 13  1  0  0  0  0
 18 17  2  0  0  0  0
 19 21  1  0  0  0  0
 20 19  1  0  0  0  0
 20 54  1  0  0  0  0
 20 55  1  0  0  0  0
 21 51  1  0  0  0  0
 21 53  1  0  0  0  0
 22 23  1  0  0  0  0
 23 34  1  0  0  0  0
 23 35  1  0  0  0  0
 24 22  2  0  0  0  0
 26  6  1  0  0  0  0
 26 36  1  0  0  0  0
 29 44  1  0  0  0  0
 29 43  1  0  0  0  0
 31 18  1  0  0  0  0
 32 39  1  0  0  0  0
 33 38  1  0  0  0  0
 37 27  1  0  0  0  0
 41 17  1  0  0  0  0
 42 29  1  0  0  0  0
 45 30  1  0  0  0  0
 47 10  1  0  0  0  0
 48 10  1  0  0  0  0
 52 21  1  0  0  0  0
 56 20  1  0  0  0  0
M  END