AMF13
  Mrv1674 09121610113D          

 48 51  0  0  0  0            999 V2000
    0.0000    0.0000    0.0000 F   0  0  0  0  0  0  0  0  0  0  0  0
    1.3572    0.0000    0.0000 C   0  0  0  0  0  0  0  0  0  0  0  0
    2.1007    0.0000    1.2268 C   0  0  0  0  0  0  0  0  0  0  0  0
    1.5167    0.1066    2.4983 N   0  0  0  0  0  0  0  0  0  0  0  0
    0.1449    0.5613    2.6215 C   0  0  2  0  0  0  0  0  0  0  0  0
   -0.1887    1.0060    4.0613 C   0  0  2  0  0  0  0  0  0  0  0  0
    0.1622    0.0064    5.0594 N   0  0  2  0  0  0  0  0  0  0  0  0
   -0.1491    0.4323    6.4048 C   0  0  0  0  0  0  0  0  0  0  0  0
    1.8808   -0.8954    3.4859 C   0  0  2  0  0  0  0  0  0  0  0  0
    1.5374   -0.4491    4.9225 C   0  0  1  0  0  0  0  0  0  0  0  0
    3.5064   -0.0390    1.1295 C   0  0  0  0  0  0  0  0  0  0  0  0
    4.1670   -0.0668   -0.1141 C   0  0  0  0  0  0  0  0  0  0  0  0
    5.5745   -0.1073   -0.1947 N   0  0  0  0  0  0  0  0  0  0  0  0
    6.1907   -0.0717   -1.4202 C   0  0  0  0  0  0  0  0  0  0  0  0
    6.3816   -0.1662    0.9825 C   0  0  0  0  0  0  0  0  0  0  0  0
    6.3411   -1.2986    1.8211 C   0  0  0  0  0  0  0  0  0  0  0  0
    7.1441   -1.3610    2.9526 C   0  0  0  0  0  0  0  0  0  0  0  0
    8.0057   -0.2917    3.2610 C   0  0  0  0  0  0  0  0  0  0  0  0
    8.7885   -0.3525    4.3619 F   0  0  0  0  0  0  0  0  0  0  0  0
    7.2470    0.9013    1.2968 C   0  0  0  0  0  0  0  0  0  0  0  0
    8.0542    0.8397    2.4258 C   0  0  0  0  0  0  0  0  0  0  0  0
    2.0163   -0.0014   -1.2306 C   0  0  0  0  0  0  0  0  0  0  0  0
    3.4113   -0.0352   -1.3121 C   0  0  0  0  0  0  0  0  0  0  0  0
    4.0551   -0.0318   -2.6369 C   0  0  0  0  0  0  0  0  0  0  0  0
    3.3820   -0.0247   -3.6847 O   0  0  0  0  0  0  0  0  0  0  0  0
    5.5122   -0.0340   -2.6179 C   0  0  0  0  0  0  0  0  0  0  0  0
    6.3339    0.0058   -3.8360 C   0  0  0  0  0  0  0  0  0  0  0  0
    5.7992    0.0014   -5.0828 O   0  0  0  0  0  0  0  0  0  0  0  0
    7.5727    0.0457   -3.8377 O   0  0  0  0  0  0  0  0  0  0  0  0
   -1.2406    0.6841    6.4585 H   0  0  0  0  0  0  0  0  0  0  0  0
    0.4422    1.3298    6.7370 H   0  0  0  0  0  0  0  0  0  0  0  0
    0.0617   -0.4147    7.1088 H   0  0  0  0  0  0  0  0  0  0  0  0
   -1.3016    1.1684    4.1129 H   0  0  0  0  0  0  0  0  0  0  0  0
    0.3176    1.9949    4.2629 H   0  0  0  0  0  0  0  0  0  0  0  0
   -0.5800   -0.2478    2.3148 H   0  0  0  0  0  0  0  0  0  0  0  0
   -0.0039    1.4467    1.9425 H   0  0  0  0  0  0  0  0  0  0  0  0
    2.2759    0.3432    5.2417 H   0  0  0  0  0  0  0  0  0  0  0  0
    1.6733   -1.3416    5.5954 H   0  0  0  0  0  0  0  0  0  0  0  0
    2.9882   -1.0850    3.4424 H   0  0  0  0  0  0  0  0  0  0  0  0
    1.3497   -1.8685    3.2712 H   0  0  0  0  0  0  0  0  0  0  0  0
    7.3044   -0.0801   -1.4085 H   0  0  0  0  0  0  0  0  0  0  0  0
    7.1168   -2.2447    3.6079 H   0  0  0  0  0  0  0  0  0  0  0  0
    5.6721   -2.1426    1.5856 H   0  0  0  0  0  0  0  0  0  0  0  0
    8.7326    1.6707    2.6721 H   0  0  0  0  0  0  0  0  0  0  0  0
    7.2936    1.7925    0.6492 H   0  0  0  0  0  0  0  0  0  0  0  0
    4.1088   -0.0207    2.0537 H   0  0  0  0  0  0  0  0  0  0  0  0
    4.8295   -0.0298   -5.0606 H   0  0  0  0  0  0  0  0  0  0  0  0
    1.4294    0.0119   -2.1672 H   0  0  0  0  0  0  0  0  0  0  0  0
  1  2  1  0  0  0  0
  2  3  1  0  0  0  0
  3  4  1  0  0  0  0
  4  5  1  0  0  0  0
  4  9  1  0  0  0  0
  5  6  1  0  0  0  0
  6 33  1  0  0  0  0
  6 34  1  0  0  0  0
  6  7  1  0  0  0  0
  7  8  1  0  0  0  0
  8 30  1  0  0  0  0
  8 31  1  0  0  0  0
  8 32  1  0  0  0  0
  9 10  1  0  0  0  0
 10  7  1  0  0  0  0
 10 37  1  0  0  0  0
 10 38  1  0  0  0  0
 11  3  2  0  0  0  0
 11 46  1  0  0  0  0
 12 11  1  0  0  0  0
 13 12  1  0  0  0  0
 13 15  1  0  0  0  0
 14 13  1  0  0  0  0
 14 41  1  0  0  0  0
 15 20  2  0  0  0  0
 15 16  1  0  0  0  0
 16 17  2  0  0  0  0
 17 18  1  0  0  0  0
 17 42  1  0  0  0  0
 18 19  1  0  0  0  0
 20 21  1  0  0  0  0
 21 18  2  0  0  0  0
 21 44  1  0  0  0  0
 22  2  2  0  0  0  0
 23 12  2  0  0  0  0
 23 22  1  0  0  0  0
 24 23  1  0  0  0  0
 24 26  1  0  0  0  0
 25 24  2  0  0  0  0
 26 14  2  0  0  0  0
 27 26  1  0  0  0  0
 28 27  1  0  0  0  0
 28 47  1  0  0  0  0
 29 27  2  0  0  0  0
 35  5  1  0  0  0  0
 36  5  1  0  0  0  0
 39  9  1  0  0  0  0
 40  9  1  0  0  0  0
 43 16  1  0  0  0  0
 45 20  1  0  0  0  0
 48 22  1  0  0  0  0
M  END