AMF17
  Mrv1674 09121610113D          

 35 35  0  0  0  0            999 V2000
    0.0000    0.0000    0.0000 C   0  0  0  0  0  0  0  0  0  0  0  0
    1.3924    0.0000    0.0000 C   0  0  0  0  0  0  0  0  0  0  0  0
    2.0020    0.0000    1.5435 S   0  0  0  0  0  0  0  0  0  0  0  0
   -0.8174   -0.0199   -1.2323 C   0  0  1  0  0  0  0  0  0  0  0  0
   -1.1469    1.5740   -1.9314 S   0  0  0  0  0  0  0  0  0  0  0  0
   -1.9916    2.4815   -0.6778 C   0  0  2  0  0  0  0  0  0  0  0  0
   -3.3768    1.9563   -0.4025 C   0  0  2  0  0  0  0  0  0  0  0  0
   -3.9988    2.6590    0.8131 C   0  0  0  0  0  0  0  0  0  0  0  0
   -4.9622    3.4927    0.6953 N   0  0  0  0  0  0  0  0  0  0  0  0
   -6.1267    4.4953    0.6910 S   0  0  2  0  0  0  0  0  0  0  0  0
   -6.5589    4.7020   -0.8618 N   0  0  0  0  0  0  0  0  0  0  0  0
   -5.6871    5.7583    1.1779 O   0  0  0  0  0  0  0  0  0  0  0  0
   -7.2494    3.9433    1.3704 O   0  0  0  0  0  0  0  0  0  0  0  0
   -3.4574    2.3091    2.0281 N   0  0  0  0  0  0  0  0  0  0  0  0
   -0.5816    0.0017    1.2621 N   0  0  0  0  0  0  0  0  0  0  0  0
    0.3840   -0.0032    2.2099 C   0  0  0  0  0  0  0  0  0  0  0  0
    0.3015    0.0211    3.5865 N   0  0  0  0  0  0  0  0  0  0  0  0
   -0.8195   -0.1845    4.2875 C   0  0  0  0  0  0  0  0  0  0  0  0
   -2.1287   -0.3007    3.7787 N   0  0  1  0  0  0  0  0  0  0  0  0
   -0.6778   -0.2854    5.6971 N   0  0  1  0  0  0  0  0  0  0  0  0
    2.0088    0.0092   -0.8974 H   0  0  0  0  0  0  0  0  0  0  0  0
   -0.2549   -0.5493   -2.0461 H   0  0  0  0  0  0  0  0  0  0  0  0
   -1.7783   -0.5679   -1.0619 H   0  0  0  0  0  0  0  0  0  0  0  0
   -6.1774    5.4019   -1.4426 H   0  0  0  0  0  0  0  0  0  0  0  0
   -7.2538    4.1626   -1.3077 H   0  0  0  0  0  0  0  0  0  0  0  0
   -3.7675    2.7211    2.8737 H   0  0  0  0  0  0  0  0  0  0  0  0
   -2.6758    1.7009    2.0590 H   0  0  0  0  0  0  0  0  0  0  0  0
   -3.3432    0.8512   -0.2023 H   0  0  0  0  0  0  0  0  0  0  0  0
   -4.0305    2.1126   -1.3012 H   0  0  0  0  0  0  0  0  0  0  0  0
   -2.0431    3.5274   -1.0777 H   0  0  0  0  0  0  0  0  0  0  0  0
   -1.3766    2.5024    0.2552 H   0  0  0  0  0  0  0  0  0  0  0  0
   -2.2089   -0.6010    2.8315 H   0  0  0  0  0  0  0  0  0  0  0  0
   -2.8104   -0.7012    4.3841 H   0  0  0  0  0  0  0  0  0  0  0  0
    0.2262   -0.0395    6.0427 H   0  0  0  0  0  0  0  0  0  0  0  0
   -1.4240    0.1107    6.2256 H   0  0  0  0  0  0  0  0  0  0  0  0
  1  2  2  0  0  0  0
  1 15  1  0  0  0  0
  2  3  1  0  0  0  0
  3 16  1  0  0  0  0
  4  1  1  0  0  0  0
  4 23  1  0  0  0  0
  5  4  1  0  0  0  0
  5  6  1  0  0  0  0
  6  7  1  0  0  0  0
  6 31  1  0  0  0  0
  7 28  1  0  0  0  0
  7  8  1  0  0  0  0
  8 14  1  0  0  0  0
  9  8  2  0  0  0  0
 10  9  1  0  0  0  0
 10 12  2  0  0  0  0
 10 13  2  0  0  0  0
 11 10  1  0  0  0  0
 14 27  1  0  0  0  0
 14 26  1  0  0  0  0
 15 16  2  0  0  0  0
 16 17  1  0  0  0  0
 17 18  2  0  0  0  0
 18 20  1  0  0  0  0
 19 18  1  0  0  0  0
 19 33  1  0  0  0  0
 20 34  1  0  0  0  0
 20 35  1  0  0  0  0
 21  2  1  0  0  0  0
 22  4  1  0  0  0  0
 24 11  1  0  0  0  0
 25 11  1  0  0  0  0
 29  7  1  0  0  0  0
 30  6  1  0  0  0  0
 32 19  1  0  0  0  0
M  END