AMF29
  Mrv1674 09121610113D          

 41 43  0  0  0  0            999 V2000
    0.0000    0.0000    0.0000 F   0  0  0  0  0  0  0  0  0  0  0  0
    1.3571    0.0000    0.0000 C   0  0  0  0  0  0  0  0  0  0  0  0
    2.1011    0.0000    1.2222 C   0  0  0  0  0  0  0  0  0  0  0  0
    1.5219    0.0824    2.5033 N   0  0  1  0  0  0  0  0  0  0  0  0
    0.1531    0.5485    2.6307 C   0  0  2  0  0  0  0  0  0  0  0  0
   -0.1844    0.9316    4.0886 C   0  0  1  0  0  0  0  0  0  0  0  0
    0.1477   -0.1138    5.0355 N   0  0  1  0  0  0  0  0  0  0  0  0
    1.8480   -0.9874    3.4338 C   0  0  2  0  0  0  0  0  0  0  0  0
    1.5007   -0.6100    4.8904 C   0  0  2  0  0  0  0  0  0  0  0  0
    3.5072   -0.0196    1.1268 C   0  0  0  0  0  0  0  0  0  0  0  0
    4.1739   -0.0306   -0.1152 C   0  0  0  0  0  0  0  0  0  0  0  0
    5.5813   -0.0331   -0.1944 N   0  0  0  0  0  0  0  0  0  0  0  0
    6.4033   -0.0066    1.0025 C   0  0  1  0  0  0  0  0  0  0  0  0
    6.5448   -1.3434    1.7133 C   0  0  0  0  0  0  0  0  0  0  0  0
    6.1874   -0.1216   -1.4216 C   0  0  0  0  0  0  0  0  0  0  0  0
    2.0188   -0.0043   -1.2309 C   0  0  0  0  0  0  0  0  0  0  0  0
    3.4124   -0.0283   -1.3106 C   0  0  0  0  0  0  0  0  0  0  0  0
    4.0471   -0.0573   -2.6461 C   0  0  0  0  0  0  0  0  0  0  0  0
    3.3742   -0.0064   -3.6838 O   0  0  0  0  0  0  0  0  0  0  0  0
    5.5075   -0.1418   -2.6153 C   0  0  0  0  0  0  0  0  0  0  0  0
    6.2502   -0.2442   -3.8665 C   0  0  0  0  0  0  0  0  0  0  0  0
    7.6152   -0.1365   -3.7181 O   0  0  0  0  0  0  0  0  0  0  0  0
    5.8600   -0.4196   -5.0221 O   0  0  0  0  0  0  0  0  0  0  0  0
   -0.0039    0.2073    5.9734 H   0  0  0  0  0  0  0  0  0  0  0  0
    0.3304    1.9073    4.3294 H   0  0  0  0  0  0  0  0  0  0  0  0
   -1.2959    1.1029    4.1455 H   0  0  0  0  0  0  0  0  0  0  0  0
   -0.5814   -0.2362    2.2858 H   0  0  0  0  0  0  0  0  0  0  0  0
    0.0233    1.4621    1.9871 H   0  0  0  0  0  0  0  0  0  0  0  0
    1.5912   -1.5424    5.5154 H   0  0  0  0  0  0  0  0  0  0  0  0
    2.2709    0.1299    5.2578 H   0  0  0  0  0  0  0  0  0  0  0  0
    2.9505   -1.2032    3.3848 H   0  0  0  0  0  0  0  0  0  0  0  0
    1.2939   -1.9329    3.1623 H   0  0  0  0  0  0  0  0  0  0  0  0
    5.5518   -1.7390    2.0369 H   0  0  0  0  0  0  0  0  0  0  0  0
    7.0276   -2.1025    1.0522 H   0  0  0  0  0  0  0  0  0  0  0  0
    7.1844   -1.1981    2.6174 H   0  0  0  0  0  0  0  0  0  0  0  0
    7.4313    0.3593    0.7123 H   0  0  0  0  0  0  0  0  0  0  0  0
    5.9681    0.7556    1.7115 H   0  0  0  0  0  0  0  0  0  0  0  0
    7.2984   -0.1664   -1.4115 H   0  0  0  0  0  0  0  0  0  0  0  0
    4.0927   -0.0138    2.0608 H   0  0  0  0  0  0  0  0  0  0  0  0
    8.0340   -0.2116   -4.5900 H   0  0  0  0  0  0  0  0  0  0  0  0
    1.4324   -0.0014   -2.1681 H   0  0  0  0  0  0  0  0  0  0  0  0
  1  2  1  0  0  0  0
  2  3  1  0  0  0  0
  3  4  1  0  0  0  0
  4  5  1  0  0  0  0
  4  8  1  0  0  0  0
  5  6  1  0  0  0  0
  6 26  1  0  0  0  0
  6 25  1  0  0  0  0
  6  7  1  0  0  0  0
  7 24  1  0  0  0  0
  8  9  1  0  0  0  0
  9  7  1  0  0  0  0
  9 30  1  0  0  0  0
  9 29  1  0  0  0  0
 10  3  2  0  0  0  0
 10 39  1  0  0  0  0
 11 10  1  0  0  0  0
 12 11  1  0  0  0  0
 12 13  1  0  0  0  0
 13 37  1  0  0  0  0
 13 14  1  0  0  0  0
 14 33  1  0  0  0  0
 14 35  1  0  0  0  0
 15 12  1  0  0  0  0
 15 38  1  0  0  0  0
 16  2  2  0  0  0  0
 17 11  2  0  0  0  0
 17 16  1  0  0  0  0
 18 17  1  0  0  0  0
 18 20  1  0  0  0  0
 19 18  2  0  0  0  0
 20 15  2  0  0  0  0
 21 20  1  0  0  0  0
 21 22  1  0  0  0  0
 23 21  2  0  0  0  0
 27  5  1  0  0  0  0
 28  5  1  0  0  0  0
 31  8  1  0  0  0  0
 32  8  1  0  0  0  0
 34 14  1  0  0  0  0
 36 13  1  0  0  0  0
 40 22  1  0  0  0  0
 41 16  1  0  0  0  0
M  END