AMF22
  Mrv1674 09121610113D          

 53 56  0  0  0  0            999 V2000
    0.0000    0.0000    0.0000 C   0  0  0  0  0  0  0  0  0  0  0  0
    1.3949    0.0000    0.0000 C   0  0  0  0  0  0  0  0  0  0  0  0
    2.0897    0.0000    1.2064 C   0  0  0  0  0  0  0  0  0  0  0  0
    1.3923    0.0043    2.4230 C   0  0  0  0  0  0  0  0  0  0  0  0
    2.1612    0.0100    3.6620 C   0  0  0  0  0  0  0  0  0  0  0  0
    1.9839    0.9502    4.7347 N   0  0  0  0  0  0  0  0  0  0  0  0
    2.8330    0.6617    5.6302 N   0  0  0  0  0  0  0  0  0  0  0  0
    3.1781   -0.8446    3.9996 N   0  0  0  0  0  0  0  0  0  0  0  0
    3.5488   -0.4010    5.2046 N   0  0  0  0  0  0  0  0  0  0  0  0
   -0.6974   -0.0052    1.2050 C   0  0  0  0  0  0  0  0  0  0  0  0
   -0.0126   -0.0032    2.4293 C   0  0  0  0  0  0  0  0  0  0  0  0
   -0.7931   -0.0320    3.6709 C   0  0  0  0  0  0  0  0  0  0  0  0
   -1.3314   -1.2424    4.1281 C   0  0  0  0  0  0  0  0  0  0  0  0
   -2.0941   -1.2752    5.2928 C   0  0  0  0  0  0  0  0  0  0  0  0
   -2.3344   -0.1001    6.0111 C   0  0  0  0  0  0  0  0  0  0  0  0
   -3.1170   -0.1350    7.2932 C   0  0  1  0  0  0  0  0  0  0  0  0
   -4.4749   -0.5897    7.1646 N   0  0  0  0  0  0  0  0  0  0  0  0
   -4.9671   -1.8500    7.5278 C   0  0  0  0  0  0  0  0  0  0  0  0
   -6.3401   -1.8331    7.1867 C   0  0  0  0  0  0  0  0  0  0  0  0
   -7.4316   -3.0880    7.4135 Cl  0  0  0  0  0  0  0  0  0  0  0  0
   -4.1740   -2.9434    8.1401 C   0  0  1  0  0  0  0  0  0  0  0  0
   -3.4679   -2.5274    9.2943 O   0  0  0  0  0  0  0  0  0  0  0  0
   -5.5538    0.1332    6.6126 C   0  0  0  0  0  0  0  0  0  0  0  0
   -5.4113    1.5401    6.1341 C   0  0  2  0  0  0  0  0  0  0  0  0
   -6.5410    1.9588    5.2165 C   0  0  2  0  0  0  0  0  0  0  0  0
   -6.3162    3.3663    4.7030 C   0  0  2  0  0  0  0  0  0  0  0  0
   -7.4387    3.8038    3.7978 C   0  0  0  0  0  0  0  0  0  0  0  0
   -6.6936   -0.6068    6.6232 N   0  0  0  0  0  0  0  0  0  0  0  0
   -1.0357    1.1447    4.3900 C   0  0  0  0  0  0  0  0  0  0  0  0
   -1.8050    1.1095    5.5517 C   0  0  0  0  0  0  0  0  0  0  0  0
   -0.5511    0.0018   -0.9523 H   0  0  0  0  0  0  0  0  0  0  0  0
    1.9476   -0.0006   -0.9510 H   0  0  0  0  0  0  0  0  0  0  0  0
    3.1905   -0.0031    1.2078 H   0  0  0  0  0  0  0  0  0  0  0  0
    4.2764   -0.8369    5.7358 H   0  0  0  0  0  0  0  0  0  0  0  0
   -1.7982   -0.0119    1.2043 H   0  0  0  0  0  0  0  0  0  0  0  0
   -1.1481   -2.1703    3.5658 H   0  0  0  0  0  0  0  0  0  0  0  0
   -2.5114   -2.2299    5.6477 H   0  0  0  0  0  0  0  0  0  0  0  0
   -2.5887   -0.8215    8.0222 H   0  0  0  0  0  0  0  0  0  0  0  0
   -3.1475    0.9023    7.7409 H   0  0  0  0  0  0  0  0  0  0  0  0
   -4.8624   -3.7969    8.3888 H   0  0  0  0  0  0  0  0  0  0  0  0
   -3.3702   -3.3016    7.4372 H   0  0  0  0  0  0  0  0  0  0  0  0
   -4.1193   -2.2350    9.9431 H   0  0  0  0  0  0  0  0  0  0  0  0
   -4.4274    1.6470    5.5973 H   0  0  0  0  0  0  0  0  0  0  0  0
   -5.3819    2.2152    7.0332 H   0  0  0  0  0  0  0  0  0  0  0  0
   -7.5212    3.1237    2.9156 H   0  0  0  0  0  0  0  0  0  0  0  0
   -8.4134    3.7884    4.3430 H   0  0  0  0  0  0  0  0  0  0  0  0
   -7.2568    4.8417    3.4282 H   0  0  0  0  0  0  0  0  0  0  0  0
   -5.3434    3.4129    4.1456 H   0  0  0  0  0  0  0  0  0  0  0  0
   -6.2344    4.0737    5.5702 H   0  0  0  0  0  0  0  0  0  0  0  0
   -7.5178    1.9095    5.7660 H   0  0  0  0  0  0  0  0  0  0  0  0
   -6.6108    1.2472    4.3525 H   0  0  0  0  0  0  0  0  0  0  0  0
   -0.6078    2.0979    4.0433 H   0  0  0  0  0  0  0  0  0  0  0  0
   -1.9861    2.0405    6.1102 H   0  0  0  0  0  0  0  0  0  0  0  0
  1  2  2  0  0  0  0
  1 10  1  0  0  0  0
  2  3  1  0  0  0  0
  3 33  1  0  0  0  0
  3  4  2  0  0  0  0
  4 11  1  0  0  0  0
  4  5  1  0  0  0  0
  5  8  2  0  0  0  0
  5  6  1  0  0  0  0
  6  7  2  0  0  0  0
  8  9  1  0  0  0  0
  9  7  1  0  0  0  0
  9 34  1  0  0  0  0
 10 11  2  0  0  0  0
 11 12  1  0  0  0  0
 12 13  2  0  0  0  0
 12 29  1  0  0  0  0
 13 14  1  0  0  0  0
 14 37  1  0  0  0  0
 14 15  2  0  0  0  0
 15 16  1  0  0  0  0
 16 39  1  0  0  0  0
 16 38  1  0  0  0  0
 17 16  1  0  0  0  0
 17 18  1  0  0  0  0
 18 21  1  0  0  0  0
 19 18  2  0  0  0  0
 19 20  1  0  0  0  0
 21 40  1  0  0  0  0
 21 22  1  0  0  0  0
 22 42  1  0  0  0  0
 23 17  1  0  0  0  0
 23 28  2  0  0  0  0
 24 23  1  0  0  0  0
 24 44  1  0  0  0  0
 25 24  1  0  0  0  0
 25 50  1  0  0  0  0
 26 25  1  0  0  0  0
 26 49  1  0  0  0  0
 27 26  1  0  0  0  0
 27 46  1  0  0  0  0
 28 19  1  0  0  0  0
 29 30  2  0  0  0  0
 30 15  1  0  0  0  0
 30 53  1  0  0  0  0
 31  1  1  0  0  0  0
 32  2  1  0  0  0  0
 35 10  1  0  0  0  0
 36 13  1  0  0  0  0
 41 21  1  0  0  0  0
 43 24  1  0  0  0  0
 45 27  1  0  0  0  0
 47 27  1  0  0  0  0
 48 26  1  0  0  0  0
 51 25  1  0  0  0  0
 52 29  1  0  0  0  0
M  END