AMF2
  Mrv1674 09121610113D          

 55 57  0  0  0  0            999 V2000
    0.0000    0.0000    0.0000 C   0  0  0  0  0  0  0  0  0  0  0  0
    1.4512    0.0000    0.0000 C   0  0  0  0  0  0  0  0  0  0  0  0
    2.1878    0.0000    1.1560 N   0  0  0  0  0  0  0  0  0  0  0  0
    1.5167   -0.0124    2.3015 C   0  0  0  0  0  0  0  0  0  0  0  0
    0.0658   -0.0204    2.3157 C   0  0  0  0  0  0  0  0  0  0  0  0
   -0.6776   -0.0139    1.2306 N   0  0  0  0  0  0  0  0  0  0  0  0
    2.1023   -0.0060   -1.3204 C   0  0  0  0  0  0  0  0  0  0  0  0
    1.3705   -0.0007   -2.4585 N   0  0  0  0  0  0  0  0  0  0  0  0
   -0.0211    0.0331   -2.3298 C   0  0  0  0  0  0  0  0  0  0  0  0
   -0.7359    0.0106   -1.1528 N   0  0  0  0  0  0  0  0  0  0  0  0
   -0.7446    0.1308   -3.5094 N   0  0  0  0  0  0  0  0  0  0  0  0
    3.4682   -0.0134   -1.4126 N   0  0  0  0  0  0  0  0  0  0  0  0
    2.2101    0.0090    3.6461 C   0  0  2  0  0  0  0  0  0  0  0  0
    3.6201   -0.2853    3.6960 N   0  0  0  0  0  0  0  0  0  0  0  0
    4.5036    0.7771    3.2753 C   0  0  0  0  0  0  0  0  0  0  0  0
    4.0543   -1.6028    3.4699 C   0  0  0  0  0  0  0  0  0  0  0  0
    5.4405   -1.8924    3.3709 C   0  0  0  0  0  0  0  0  0  0  0  0
    5.8869   -3.1996    3.2497 C   0  0  0  0  0  0  0  0  0  0  0  0
    4.9814   -4.2675    3.2003 C   0  0  0  0  0  0  0  0  0  0  0  0
    3.6136   -3.9990    3.2937 C   0  0  0  0  0  0  0  0  0  0  0  0
    3.1525   -2.6949    3.4191 C   0  0  0  0  0  0  0  0  0  0  0  0
    5.5339   -5.6398    3.0752 C   0  0  0  0  0  0  0  0  0  0  0  0
    6.6579   -5.9441    3.5223 O   0  0  0  0  0  0  0  0  0  0  0  0
    4.7459   -6.5953    2.4431 N   0  0  0  0  0  0  0  0  0  0  0  0
    5.2258   -7.9208    2.1708 C   0  0  2  0  0  0  0  0  0  0  0  0
    5.4249   -8.1963    0.6818 C   0  0  0  0  0  0  0  0  0  0  0  0
    4.3280   -9.0346    2.7388 C   0  0  2  0  0  0  0  0  0  0  0  0
    2.8804   -8.8971    2.3224 C   0  0  1  0  0  0  0  0  0  0  0  0
    2.1276  -10.1665    2.5568 C   0  0  0  0  0  0  0  0  0  0  0  0
    0.7846   -9.9829    2.7094 O   0  0  0  0  0  0  0  0  0  0  0  0
    2.5373  -11.3288    2.6151 O   0  0  0  0  0  0  0  0  0  0  0  0
    6.3441   -8.8213    0.1523 O   0  0  0  0  0  0  0  0  0  0  0  0
    4.4535   -7.7124   -0.1441 O   0  0  0  0  0  0  0  0  0  0  0  0
   -1.7269    0.0018   -3.4732 H   0  0  0  0  0  0  0  0  0  0  0  0
   -0.2767   -0.0198   -4.3693 H   0  0  0  0  0  0  0  0  0  0  0  0
    3.9137   -0.0458   -2.2968 H   0  0  0  0  0  0  0  0  0  0  0  0
    4.0165   -0.0721   -0.5913 H   0  0  0  0  0  0  0  0  0  0  0  0
   -0.4708   -0.0310    3.2828 H   0  0  0  0  0  0  0  0  0  0  0  0
    1.6712   -0.7155    4.3238 H   0  0  0  0  0  0  0  0  0  0  0  0
    2.0633    1.0450    4.0750 H   0  0  0  0  0  0  0  0  0  0  0  0
    3.9633    1.7595    3.2900 H   0  0  0  0  0  0  0  0  0  0  0  0
    4.9063    0.6093    2.2398 H   0  0  0  0  0  0  0  0  0  0  0  0
    5.3636    0.8334    3.9960 H   0  0  0  0  0  0  0  0  0  0  0  0
    6.1872   -1.0849    3.4044 H   0  0  0  0  0  0  0  0  0  0  0  0
    6.9685   -3.4115    3.1984 H   0  0  0  0  0  0  0  0  0  0  0  0
    2.0660   -2.5310    3.4692 H   0  0  0  0  0  0  0  0  0  0  0  0
    2.8752   -4.8162    3.2831 H   0  0  0  0  0  0  0  0  0  0  0  0
    3.9224   -6.3118    1.9664 H   0  0  0  0  0  0  0  0  0  0  0  0
    4.6667   -7.9332   -1.0661 H   0  0  0  0  0  0  0  0  0  0  0  0
    6.2545   -8.0350    2.6457 H   0  0  0  0  0  0  0  0  0  0  0  0
    4.4022   -9.0151    3.8580 H   0  0  0  0  0  0  0  0  0  0  0  0
    4.7349  -10.0225    2.3899 H   0  0  0  0  0  0  0  0  0  0  0  0
    2.3777   -8.0668    2.8864 H   0  0  0  0  0  0  0  0  0  0  0  0
    2.8080   -8.6560    1.2247 H   0  0  0  0  0  0  0  0  0  0  0  0
    0.3503  -10.8419    2.8401 H   0  0  0  0  0  0  0  0  0  0  0  0
  1  6  1  0  0  0  0
  2  1  1  0  0  0  0
  2  3  1  0  0  0  0
  3  4  2  0  0  0  0
  4  5  1  0  0  0  0
  4 13  1  0  0  0  0
  5 38  1  0  0  0  0
  6  5  2  0  0  0  0
  7  2  2  0  0  0  0
  8  7  1  0  0  0  0
  8  9  2  0  0  0  0
  9 10  1  0  0  0  0
 10  1  2  0  0  0  0
 11  9  1  0  0  0  0
 11 34  1  0  0  0  0
 12  7  1  0  0  0  0
 12 37  1  0  0  0  0
 13 14  1  0  0  0  0
 13 40  1  0  0  0  0
 13 39  1  0  0  0  0
 15 14  1  0  0  0  0
 15 41  1  0  0  0  0
 15 43  1  0  0  0  0
 16 14  1  0  0  0  0
 17 16  2  0  0  0  0
 17 44  1  0  0  0  0
 18 17  1  0  0  0  0
 19 18  2  0  0  0  0
 19 20  1  0  0  0  0
 20 21  2  0  0  0  0
 21 16  1  0  0  0  0
 21 46  1  0  0  0  0
 22 19  1  0  0  0  0
 22 23  2  0  0  0  0
 24 22  1  0  0  0  0
 25 24  1  0  0  0  0
 25 50  1  1  0  0  0
 25 27  1  0  0  0  0
 26 25  1  0  0  0  0
 27 51  1  0  0  0  0
 28 27  1  0  0  0  0
 28 29  1  0  0  0  0
 28 53  1  0  0  0  0
 29 31  2  0  0  0  0
 29 30  1  0  0  0  0
 30 55  1  0  0  0  0
 32 26  2  0  0  0  0
 33 26  1  0  0  0  0
 35 11  1  0  0  0  0
 36 12  1  0  0  0  0
 42 15  1  0  0  0  0
 45 18  1  0  0  0  0
 47 20  1  0  0  0  0
 48 24  1  0  0  0  0
 49 33  1  0  0  0  0
 52 27  1  0  0  0  0
 54 28  1  0  0  0  0
M  END