AMF28
  Mrv1674 09121610113D          

 14 14  0  0  0  0            999 V2000
    0.0000    0.0000    0.0000 C   0  0  0  0  0  0  0  0  0  0  0  0
    1.3948    0.0000    0.0000 C   0  0  0  0  0  0  0  0  0  0  0  0
    2.0657    0.0000    1.2303 C   0  0  0  0  0  0  0  0  0  0  0  0
    1.3016    0.0001    2.4207 C   0  0  0  0  0  0  0  0  0  0  0  0
    3.5250   -0.0001    1.3226 C   0  0  0  0  0  0  0  0  0  0  0  0
    4.1830   -0.0002    0.1250 O   0  0  0  0  0  0  0  0  0  0  0  0
    4.2327    0.0000    2.3361 O   0  0  0  0  0  0  0  0  0  0  0  0
   -0.6726    0.0000    1.2362 C   0  0  0  0  0  0  0  0  0  0  0  0
   -0.0428    0.0001    2.4285 N   0  0  0  0  0  0  0  0  0  0  0  0
   -0.5653    0.0000   -0.9412 H   0  0  0  0  0  0  0  0  0  0  0  0
    1.9672    0.0000   -0.9413 H   0  0  0  0  0  0  0  0  0  0  0  0
    1.8063    0.0001    3.4066 H   0  0  0  0  0  0  0  0  0  0  0  0
    5.1410   -0.0004    0.2886 H   0  0  0  0  0  0  0  0  0  0  0  0
   -1.7775    0.0001    1.2798 H   0  0  0  0  0  0  0  0  0  0  0  0
  1  2  2  0  0  0  0
  1  8  1  0  0  0  0
  2  3  1  0  0  0  0
  3  5  1  0  0  0  0
  3  4  2  0  0  0  0
  4  9  1  0  0  0  0
  4 12  1  0  0  0  0
  5  7  2  0  0  0  0
  6  5  1  0  0  0  0
  6 13  1  0  0  0  0
  8 14  1  0  0  0  0
  8  9  2  0  0  0  0
 10  1  1  0  0  0  0
 11  2  1  0  0  0  0
M  END