AMF20
  Mrv1674 09121610113D          

 48 49  0  0  0  0            999 V2000
    0.0000    0.0000    0.0000 C   0  0  0  0  0  0  0  0  0  0  0  0
    1.3951    0.0000    0.0000 C   0  0  0  0  0  0  0  0  0  0  0  0
    2.0945    0.0000    1.2051 C   0  0  0  0  0  0  0  0  0  0  0  0
    1.4046   -0.0001    2.4239 C   0  0  0  0  0  0  0  0  0  0  0  0
    2.1576    0.0121    3.7086 C   0  0  2  0  0  0  0  0  0  0  0  0
    2.7673   -1.3368    4.0445 C   0  0  1  0  0  0  0  0  0  0  0  0
    1.7058   -2.3521    4.5058 C   0  0  2  0  0  0  0  0  0  0  0  0
    1.3647   -2.0967    5.9752 C   0  0  0  0  0  0  0  0  0  0  0  0
    2.1572   -3.7276    4.2881 N   0  0  2  0  0  0  0  0  0  0  0  0
    1.8608   -4.2339    2.9647 C   0  0  2  0  0  0  0  0  0  0  0  0
    2.5031   -5.6179    2.7128 C   0  0  1  0  0  0  0  0  0  0  0  0
    1.9568   -6.2109    1.4477 C   0  0  0  0  0  0  0  0  0  0  0  0
    0.6320   -6.6774    1.4335 C   0  0  0  0  0  0  0  0  0  0  0  0
    0.0999   -7.2470    0.2906 C   0  0  0  0  0  0  0  0  0  0  0  0
    0.8933   -7.3631   -0.8733 C   0  0  0  0  0  0  0  0  0  0  0  0
    0.2621   -7.9411   -1.9370 O   0  0  0  0  0  0  0  0  0  0  0  0
    2.7358   -6.3209    0.2996 C   0  0  0  0  0  0  0  0  0  0  0  0
    2.2166   -6.8801   -0.8780 C   0  0  0  0  0  0  0  0  0  0  0  0
    3.0518   -6.9854   -2.1014 C   0  0  0  0  0  0  0  0  0  0  0  0
    4.0334   -6.0549   -2.3238 N   0  0  0  0  0  0  0  0  0  0  0  0
    2.8689   -7.8878   -2.9544 O   0  0  0  0  0  0  0  0  0  0  0  0
    3.9148   -5.5038    2.5853 O   0  0  0  0  0  0  0  0  0  0  0  0
   -0.6930    0.0006    1.2099 C   0  0  0  0  0  0  0  0  0  0  0  0
    0.0051    0.0005    2.4169 C   0  0  0  0  0  0  0  0  0  0  0  0
   -0.5512    0.0005   -0.9514 H   0  0  0  0  0  0  0  0  0  0  0  0
    1.9446    0.0015   -0.9528 H   0  0  0  0  0  0  0  0  0  0  0  0
    3.1947    0.0011    1.2038 H   0  0  0  0  0  0  0  0  0  0  0  0
    1.4835    0.3444    4.5426 H   0  0  0  0  0  0  0  0  0  0  0  0
    2.9877    0.7670    3.6349 H   0  0  0  0  0  0  0  0  0  0  0  0
    3.3106   -1.7215    3.1411 H   0  0  0  0  0  0  0  0  0  0  0  0
    3.5255   -1.2058    4.8599 H   0  0  0  0  0  0  0  0  0  0  0  0
    1.0529   -1.0328    6.1024 H   0  0  0  0  0  0  0  0  0  0  0  0
    0.5240   -2.7519    6.3076 H   0  0  0  0  0  0  0  0  0  0  0  0
    2.2477   -2.2878    6.6311 H   0  0  0  0  0  0  0  0  0  0  0  0
    0.7654   -2.1483    3.9003 H   0  0  0  0  0  0  0  0  0  0  0  0
    0.0147   -6.5961    2.3418 H   0  0  0  0  0  0  0  0  0  0  0  0
   -0.9331   -7.6231    0.2650 H   0  0  0  0  0  0  0  0  0  0  0  0
    0.8998   -8.1134   -2.6519 H   0  0  0  0  0  0  0  0  0  0  0  0
    3.7835   -5.9787    0.3457 H   0  0  0  0  0  0  0  0  0  0  0  0
    4.2153   -5.3321   -1.6773 H   0  0  0  0  0  0  0  0  0  0  0  0
    4.6071   -6.1406   -3.1258 H   0  0  0  0  0  0  0  0  0  0  0  0
    2.2742   -6.3157    3.5711 H   0  0  0  0  0  0  0  0  0  0  0  0
    4.2267   -5.0174    3.3586 H   0  0  0  0  0  0  0  0  0  0  0  0
    2.2780   -3.5109    2.2084 H   0  0  0  0  0  0  0  0  0  0  0  0
    0.7513   -4.3254    2.7746 H   0  0  0  0  0  0  0  0  0  0  0  0
    1.7709   -4.3333    4.9880 H   0  0  0  0  0  0  0  0  0  0  0  0
   -1.7929    0.0022    1.2136 H   0  0  0  0  0  0  0  0  0  0  0  0
   -0.5466    0.0035    3.3688 H   0  0  0  0  0  0  0  0  0  0  0  0
  1  2  2  0  0  0  0
  1 23  1  0  0  0  0
  2  3  1  0  0  0  0
  3  4  2  0  0  0  0
  4  5  1  0  0  0  0
  5  6  1  0  0  0  0
  5 28  1  0  0  0  0
  6  7  1  0  0  0  0
  6 31  1  0  0  0  0
  7 35  1  6  0  0  0
  7  8  1  0  0  0  0
  8 32  1  0  0  0  0
  8 33  1  0  0  0  0
  8 34  1  0  0  0  0
  9  7  1  0  0  0  0
  9 46  1  0  0  0  0
 10  9  1  0  0  0  0
 11 10  1  0  0  0  0
 11 42  1  1  0  0  0
 12 11  1  0  0  0  0
 13 12  1  0  0  0  0
 13 36  1  0  0  0  0
 14 13  2  0  0  0  0
 15 14  1  0  0  0  0
 16 15  1  0  0  0  0
 17 12  2  0  0  0  0
 17 39  1  0  0  0  0
 18 15  2  0  0  0  0
 18 17  1  0  0  0  0
 19 18  1  0  0  0  0
 20 19  1  0  0  0  0
 20 40  1  0  0  0  0
 21 19  2  0  0  0  0
 22 11  1  0  0  0  0
 22 43  1  0  0  0  0
 23 47  1  0  0  0  0
 23 24  2  0  0  0  0
 24  4  1  0  0  0  0
 24 48  1  0  0  0  0
 25  1  1  0  0  0  0
 26  2  1  0  0  0  0
 27  3  1  0  0  0  0
 29  5  1  0  0  0  0
 30  6  1  0  0  0  0
 37 14  1  0  0  0  0
 38 16  1  0  0  0  0
 41 20  1  0  0  0  0
 44 10  1  0  0  0  0
 45 10  1  0  0  0  0
M  END