AMF23
  Mrv1674 09121610113D          

 45 48  0  0  0  0            999 V2000
    0.0000    0.0000    0.0000 C   0  0  0  0  0  0  0  0  0  0  0  0
    1.4185    0.0000    0.0000 C   0  0  0  0  0  0  0  0  0  0  0  0
    2.1171    0.0000    1.2241 C   0  0  0  0  0  0  0  0  0  0  0  0
    1.3914   -0.0703    2.4132 C   0  0  0  0  0  0  0  0  0  0  0  0
   -0.0068   -0.1208    2.4116 C   0  0  0  0  0  0  0  0  0  0  0  0
   -0.7612   -0.0495    1.1947 C   0  0  0  0  0  0  0  0  0  0  0  0
    2.1337    0.0171   -1.2285 N   0  0  0  0  0  0  0  0  0  0  0  0
    3.4935    0.2702   -1.2033 C   0  0  0  0  0  0  0  0  0  0  0  0
    4.2228    0.2883   -0.0393 C   0  0  0  0  0  0  0  0  0  0  0  0
    3.5944    0.0731    1.2656 C   0  0  0  0  0  0  0  0  0  0  0  0
   -0.6721    0.0173   -1.2203 O   0  0  0  0  0  0  0  0  0  0  0  0
    0.0855    0.6758   -2.2501 C   0  0  1  0  0  0  0  0  0  0  0  0
    1.4462    0.1229   -2.4413 N   0  0  2  0  0  0  0  0  0  0  0  0
   -2.1611    0.0433    1.1439 N   0  0  1  0  0  0  0  0  0  0  0  0
   -2.8748   -1.0045    0.4325 C   0  0  1  0  0  0  0  0  0  0  0  0
   -4.3214   -0.5885    0.0930 C   0  0  2  0  0  0  0  0  0  0  0  0
   -5.0538   -0.0765    1.2422 N   0  0  1  0  0  0  0  0  0  0  0  0
   -4.3157    0.9563    1.9549 C   0  0  2  0  0  0  0  0  0  0  0  0
   -2.8770    0.5250    2.3108 C   0  0  2  0  0  0  0  0  0  0  0  0
   -6.3963    0.3366    0.9033 C   0  0  0  0  0  0  0  0  0  0  0  0
    1.3962   -1.1439   -3.1882 C   0  0  0  0  0  0  0  0  0  0  0  0
    5.6624    0.5248   -0.1043 C   0  0  0  0  0  0  0  0  0  0  0  0
    6.4584    0.8632    0.7731 O   0  0  0  0  0  0  0  0  0  0  0  0
    6.2003    0.3572   -1.3592 O   0  0  0  0  0  0  0  0  0  0  0  0
    4.2179   -0.0484    2.3271 O   0  0  0  0  0  0  0  0  0  0  0  0
   -0.6379   -0.2272    3.6082 F   0  0  0  0  0  0  0  0  0  0  0  0
   -2.3338    1.4181    2.7264 H   0  0  0  0  0  0  0  0  0  0  0  0
   -2.9285   -0.2655    3.1154 H   0  0  0  0  0  0  0  0  0  0  0  0
   -4.8549    1.1596    2.9222 H   0  0  0  0  0  0  0  0  0  0  0  0
   -4.2733    1.9210    1.3701 H   0  0  0  0  0  0  0  0  0  0  0  0
   -6.9301    0.6329    1.8439 H   0  0  0  0  0  0  0  0  0  0  0  0
   -6.9343   -0.5315    0.4402 H   0  0  0  0  0  0  0  0  0  0  0  0
   -6.4296    1.2021    0.1854 H   0  0  0  0  0  0  0  0  0  0  0  0
   -4.8593   -1.5066   -0.2751 H   0  0  0  0  0  0  0  0  0  0  0  0
   -4.2922    0.1601   -0.7518 H   0  0  0  0  0  0  0  0  0  0  0  0
   -2.3447   -1.2289   -0.5341 H   0  0  0  0  0  0  0  0  0  0  0  0
   -2.9032   -1.9501    1.0488 H   0  0  0  0  0  0  0  0  0  0  0  0
    1.9398   -0.1005    3.3720 H   0  0  0  0  0  0  0  0  0  0  0  0
    7.1545    0.5298   -1.3199 H   0  0  0  0  0  0  0  0  0  0  0  0
    3.9908    0.4141   -2.1877 H   0  0  0  0  0  0  0  0  0  0  0  0
    2.4255   -1.5795   -3.2758 H   0  0  0  0  0  0  0  0  0  0  0  0
    1.0267   -0.8808   -4.2138 H   0  0  0  0  0  0  0  0  0  0  0  0
    0.7138   -1.9076   -2.7302 H   0  0  0  0  0  0  0  0  0  0  0  0
   -0.5255    0.5140   -3.1805 H   0  0  0  0  0  0  0  0  0  0  0  0
    0.1787    1.7705   -2.0056 H   0  0  0  0  0  0  0  0  0  0  0  0
  1  2  2  0  0  0  0
  1  6  1  0  0  0  0
  2  3  1  0  0  0  0
  3 10  1  0  0  0  0
  3  4  2  0  0  0  0
  4 38  1  0  0  0  0
  5  4  1  0  0  0  0
  5 26  1  0  0  0  0
  6  5  2  0  0  0  0
  7  2  1  0  0  0  0
  7  8  1  0  0  0  0
  8  9  2  0  0  0  0
  9 10  1  0  0  0  0
 10 25  2  0  0  0  0
 11  1  1  0  0  0  0
 12 11  1  0  0  0  0
 12 45  1  0  0  0  0
 13  7  1  0  0  0  0
 13 12  1  0  0  0  0
 14  6  1  0  0  0  0
 14 19  1  0  0  0  0
 15 14  1  0  0  0  0
 15 37  1  0  0  0  0
 16 15  1  0  0  0  0
 16 17  1  0  0  0  0
 17 18  1  0  0  0  0
 18 19  1  0  0  0  0
 18 29  1  0  0  0  0
 19 27  1  0  0  0  0
 19 28  1  0  0  0  0
 20 17  1  0  0  0  0
 20 31  1  0  0  0  0
 21 13  1  0  0  0  0
 21 43  1  0  0  0  0
 22  9  1  0  0  0  0
 22 23  2  0  0  0  0
 24 22  1  0  0  0  0
 24 39  1  0  0  0  0
 30 18  1  0  0  0  0
 32 20  1  0  0  0  0
 33 20  1  0  0  0  0
 34 16  1  0  0  0  0
 35 16  1  0  0  0  0
 36 15  1  0  0  0  0
 40  8  1  0  0  0  0
 41 21  1  0  0  0  0
 42 21  1  0  0  0  0
 44 12  1  0  0  0  0
M  END