AMF32
  Mrv1674 09121610113D          

 57 60  0  0  0  0            999 V2000
    0.0000    0.0000    0.0000 C   0  0  1  0  0  0  0  0  0  0  0  0
    1.5280    0.0000    0.0000 C   0  0  2  0  0  0  0  0  0  0  0  0
    2.0685    0.0000    1.4211 C   0  0  0  0  0  0  0  0  0  0  0  0
    1.4072   -0.5947    2.4532 C   0  0  0  0  0  0  0  0  0  0  0  0
    1.9763   -0.6158    3.8059 C   0  0  0  0  0  0  0  0  0  0  0  0
    1.1369   -1.0376    4.9340 C   0  0  0  0  0  0  0  0  0  0  0  0
    1.6649   -1.1581    6.2402 C   0  0  0  0  0  0  0  0  0  0  0  0
    0.8232   -1.4601    7.3366 C   0  0  0  0  0  0  0  0  0  0  0  0
    2.9732   -1.0056    6.5937 O   0  0  0  0  0  0  0  0  0  0  0  0
    3.1629   -0.2618    3.9971 O   0  0  0  0  0  0  0  0  0  0  0  0
    3.2755    0.6200    1.4581 O   0  0  0  0  0  0  0  0  0  0  0  0
    2.0716    1.1873   -0.8077 C   0  0  0  0  0  0  0  0  0  0  0  0
    1.4758    2.4850   -0.5302 C   0  0  0  0  0  0  0  0  0  0  0  0
    2.2137    3.7266   -0.8771 C   0  0  0  0  0  0  0  0  0  0  0  0
    3.1184    3.7375   -1.9001 N   0  0  0  0  0  0  0  0  0  0  0  0
    1.9855    4.8041   -0.2641 O   0  0  0  0  0  0  0  0  0  0  0  0
    2.9715    0.9600   -1.6276 O   0  0  0  0  0  0  0  0  0  0  0  0
    1.9296   -1.2132   -0.6307 O   0  0  0  0  0  0  0  0  0  0  0  0
   -0.5518   -1.1377    0.8708 C   0  0  2  0  0  0  0  0  0  0  0  0
    0.1533   -1.3660    2.2286 C   0  0  2  0  0  0  0  0  0  0  0  0
   -0.8743   -1.2189    3.3738 C   0  0  2  0  0  0  0  0  0  0  0  0
   -0.2394   -1.2720    4.7461 C   0  0  0  0  0  0  0  0  0  0  0  0
   -1.0625   -1.5425    5.8378 C   0  0  0  0  0  0  0  0  0  0  0  0
   -0.5316   -1.6352    7.1283 C   0  0  0  0  0  0  0  0  0  0  0  0
   -1.9075   -2.3500    3.2546 C   0  0  0  0  0  0  0  0  0  0  0  0
   -1.5217    0.0439    3.2004 O   0  0  0  0  0  0  0  0  0  0  0  0
   -0.5702   -2.3531    0.1415 O   0  0  0  0  0  0  0  0  0  0  0  0
   -0.6052    1.3420    0.4692 C   0  0  1  0  0  0  0  0  0  0  0  0
    0.2604    2.5495    0.1027 C   0  0  0  0  0  0  0  0  0  0  0  0
   -0.3507    3.6868    0.4987 O   0  0  0  0  0  0  0  0  0  0  0  0
   -1.9977    1.4442    0.0329 N   0  0  1  0  0  0  0  0  0  0  0  0
   -2.8486    2.1328    0.9795 C   0  0  0  0  0  0  0  0  0  0  0  0
   -2.1650    1.9078   -1.3255 C   0  0  0  0  0  0  0  0  0  0  0  0
    1.2703   -1.5414    8.3382 H   0  0  0  0  0  0  0  0  0  0  0  0
    3.5289   -0.8207    5.8197 H   0  0  0  0  0  0  0  0  0  0  0  0
    3.6335    0.6697    2.3621 H   0  0  0  0  0  0  0  0  0  0  0  0
    3.6404    4.5653   -2.0567 H   0  0  0  0  0  0  0  0  0  0  0  0
    3.4068    2.8994   -2.3442 H   0  0  0  0  0  0  0  0  0  0  0  0
    2.8551   -1.1100   -0.9025 H   0  0  0  0  0  0  0  0  0  0  0  0
   -1.1968   -1.8539    7.9781 H   0  0  0  0  0  0  0  0  0  0  0  0
   -2.1426   -1.6953    5.6939 H   0  0  0  0  0  0  0  0  0  0  0  0
   -2.8843   -2.0270    3.6875 H   0  0  0  0  0  0  0  0  0  0  0  0
   -2.0764   -2.6273    2.1854 H   0  0  0  0  0  0  0  0  0  0  0  0
   -1.5483   -3.2565    3.7969 H   0  0  0  0  0  0  0  0  0  0  0  0
   -2.1037    0.1698    3.9602 H   0  0  0  0  0  0  0  0  0  0  0  0
    0.4573   -2.4599    2.2496 H   0  0  0  0  0  0  0  0  0  0  0  0
    0.3307   -2.5483   -0.1488 H   0  0  0  0  0  0  0  0  0  0  0  0
   -1.6508   -0.9303    1.0511 H   0  0  0  0  0  0  0  0  0  0  0  0
    0.1940    4.4826    0.3314 H   0  0  0  0  0  0  0  0  0  0  0  0
   -3.9068    2.0715    0.6130 H   0  0  0  0  0  0  0  0  0  0  0  0
   -2.7775    1.6121    1.9721 H   0  0  0  0  0  0  0  0  0  0  0  0
   -2.5735    3.2147    1.1144 H   0  0  0  0  0  0  0  0  0  0  0  0
   -3.2416    1.7802   -1.6136 H   0  0  0  0  0  0  0  0  0  0  0  0
   -1.8837    2.9897   -1.4561 H   0  0  0  0  0  0  0  0  0  0  0  0
   -1.5345    1.2872   -2.0142 H   0  0  0  0  0  0  0  0  0  0  0  0
   -0.5983    1.3195    1.6102 H   0  0  0  0  0  0  0  0  0  0  0  0
   -0.3212   -0.2198   -1.0609 H   0  0  0  0  0  0  0  0  0  0  0  0
  1 57  1  6  0  0  0
  1  2  1  0  0  0  0
  1 28  1  0  0  0  0
  1 19  1  0  0  0  0
  2 18  1  6  0  0  0
  2  3  1  0  0  0  0
  3 11  1  0  0  0  0
  3  4  2  0  0  0  0
  4  5  1  0  0  0  0
  5 10  2  0  0  0  0
  5  6  1  0  0  0  0
  6  7  1  0  0  0  0
  7  9  1  0  0  0  0
  7  8  2  0  0  0  0
  8 34  1  0  0  0  0
 11 36  1  0  0  0  0
 12  2  1  0  0  0  0
 12 13  1  0  0  0  0
 13 29  2  0  0  0  0
 14 13  1  0  0  0  0
 14 16  2  0  0  0  0
 15 14  1  0  0  0  0
 17 12  2  0  0  0  0
 19 48  1  1  0  0  0
 19 20  1  0  0  0  0
 20  4  1  0  0  0  0
 20 46  1  1  0  0  0
 20 21  1  0  0  0  0
 21 26  1  6  0  0  0
 21 22  1  0  0  0  0
 22  6  2  0  0  0  0
 22 23  1  0  0  0  0
 23 24  2  0  0  0  0
 24  8  1  0  0  0  0
 24 40  1  0  0  0  0
 25 21  1  0  0  0  0
 25 42  1  0  0  0  0
 25 44  1  0  0  0  0
 26 45  1  0  0  0  0
 27 19  1  0  0  0  0
 28 56  1  1  0  0  0
 29 28  1  0  0  0  0
 29 30  1  0  0  0  0
 31 28  1  0  0  0  0
 31 32  1  0  0  0  0
 32 52  1  0  0  0  0
 32 51  1  0  0  0  0
 33 31  1  0  0  0  0
 35  9  1  0  0  0  0
 37 15  1  0  0  0  0
 38 15  1  0  0  0  0
 39 18  1  0  0  0  0
 41 23  1  0  0  0  0
 43 25  1  0  0  0  0
 47 27  1  0  0  0  0
 49 30  1  0  0  0  0
 50 32  1  0  0  0  0
 53 33  1  0  0  0  0
 54 33  1  0  0  0  0
 55 33  1  0  0  0  0
M  END