AMF33
  Mrv1674 09121610113D          

 47 50  0  0  0  0            999 V2000
    0.0000    0.0000    0.0000 C   0  0  0  0  0  0  0  0  0  0  0  0
    1.4125    0.0000    0.0000 C   0  0  0  0  0  0  0  0  0  0  0  0
    2.0955    0.0000    1.2338 C   0  0  0  0  0  0  0  0  0  0  0  0
    1.3839   -0.0067    2.4294 C   0  0  0  0  0  0  0  0  0  0  0  0
   -0.0106   -0.0142    2.4245 C   0  0  0  0  0  0  0  0  0  0  0  0
   -0.6974   -0.0033    1.2147 C   0  0  0  0  0  0  0  0  0  0  0  0
   -0.8124    0.0607   -1.2391 C   0  0  0  0  0  0  0  0  0  0  0  0
   -0.4604   -0.6548   -2.3800 N   0  0  0  0  0  0  0  0  0  0  0  0
    0.6520   -1.4754   -2.5618 C   0  0  0  0  0  0  0  0  0  0  0  0
    1.9523   -1.1670   -2.0249 C   0  0  0  0  0  0  0  0  0  0  0  0
    2.1114    0.0191   -1.2413 N   0  0  0  0  0  0  0  0  0  0  0  0
   -1.8721    0.7155   -1.2993 O   0  0  0  0  0  0  0  0  0  0  0  0
    0.5348   -2.6523   -3.3409 C   0  0  0  0  0  0  0  0  0  0  0  0
    1.6449   -3.4601   -3.5441 C   0  0  0  0  0  0  0  0  0  0  0  0
    2.8682   -3.0844   -2.9608 C   0  0  0  0  0  0  0  0  0  0  0  0
    3.0280   -1.9833   -2.2158 N   0  0  0  0  0  0  0  0  0  0  0  0
    3.2115    0.8853   -1.4414 C   0  0  0  0  0  0  0  0  0  0  0  0
    1.5734   -4.3773   -4.1444 H   0  0  0  0  0  0  0  0  0  0  0  0
    3.8746    0.8510   -2.8222 C   0  0  2  0  0  0  0  0  0  0  0  0
   -0.5681   -0.0185    3.3726 H   0  0  0  0  0  0  0  0  0  0  0  0
    4.4662    2.1229   -3.2034 N   0  0  2  0  0  0  0  0  0  0  0  0
    3.4901    3.1978   -3.3110 C   0  0  1  0  0  0  0  0  0  0  0  0
    4.1149    4.5295   -3.7660 C   0  0  1  0  0  0  0  0  0  0  0  0
    4.9255    4.3945   -4.9687 N   0  0  2  0  0  0  0  0  0  0  0  0
    5.9050    3.3241   -4.8505 C   0  0  2  0  0  0  0  0  0  0  0  0
    5.2822    1.9880   -4.4030 C   0  0  1  0  0  0  0  0  0  0  0  0
    5.5235    5.6461   -5.3740 C   0  0  0  0  0  0  0  0  0  0  0  0
    1.9313   -0.0026    3.3847 H   0  0  0  0  0  0  0  0  0  0  0  0
    3.1974    0.0348    1.2504 H   0  0  0  0  0  0  0  0  0  0  0  0
   -1.7996    0.0198    1.1955 H   0  0  0  0  0  0  0  0  0  0  0  0
   -1.1202   -0.6336   -3.1306 H   0  0  0  0  0  0  0  0  0  0  0  0
   -0.4345   -2.9261   -3.7868 H   0  0  0  0  0  0  0  0  0  0  0  0
    3.7760   -3.7015   -3.0920 H   0  0  0  0  0  0  0  0  0  0  0  0
    3.1302    0.4940   -3.5942 H   0  0  0  0  0  0  0  0  0  0  0  0
    4.7082    0.0927   -2.7500 H   0  0  0  0  0  0  0  0  0  0  0  0
    2.6534    2.9299   -4.0207 H   0  0  0  0  0  0  0  0  0  0  0  0
    3.0475    3.3560   -2.2868 H   0  0  0  0  0  0  0  0  0  0  0  0
    3.5629    1.6501   -0.5332 O   0  0  0  0  0  0  0  0  0  0  0  0
    3.2737    5.2410   -3.9971 H   0  0  0  0  0  0  0  0  0  0  0  0
    4.7097    4.9606   -2.9084 H   0  0  0  0  0  0  0  0  0  0  0  0
    4.7089    6.4016   -5.5260 H   0  0  0  0  0  0  0  0  0  0  0  0
    6.2552    6.0559   -4.6241 H   0  0  0  0  0  0  0  0  0  0  0  0
    6.0596    5.4916   -6.3468 H   0  0  0  0  0  0  0  0  0  0  0  0
    6.7342    3.5934   -4.1328 H   0  0  0  0  0  0  0  0  0  0  0  0
    6.3642    3.1639   -5.8658 H   0  0  0  0  0  0  0  0  0  0  0  0
    6.1244    1.2779   -4.1704 H   0  0  0  0  0  0  0  0  0  0  0  0
    4.6912    1.5574   -5.2637 H   0  0  0  0  0  0  0  0  0  0  0  0
  1  6  1  0  0  0  0
  2  1  2  0  0  0  0
  2  3  1  0  0  0  0
  3 29  1  0  0  0  0
  3  4  2  0  0  0  0
  4 28  1  0  0  0  0
  5  4  1  0  0  0  0
  5 20  1  0  0  0  0
  6  5  2  0  0  0  0
  7  1  1  0  0  0  0
  8  7  1  0  0  0  0
  9  8  1  0  0  0  0
  9 10  1  0  0  0  0
 10 11  1  0  0  0  0
 11  2  1  0  0  0  0
 12  7  2  0  0  0  0
 13  9  2  0  0  0  0
 14 13  1  0  0  0  0
 14 15  2  0  0  0  0
 15 16  1  0  0  0  0
 16 10  2  0  0  0  0
 17 11  1  0  0  0  0
 17 38  2  0  0  0  0
 18 14  1  0  0  0  0
 19 17  1  0  0  0  0
 19 35  1  0  0  0  0
 21 19  1  0  0  0  0
 22 21  1  0  0  0  0
 22 37  1  0  0  0  0
 23 22  1  0  0  0  0
 23 40  1  0  0  0  0
 24 23  1  0  0  0  0
 24 25  1  0  0  0  0
 25 26  1  0  0  0  0
 25 44  1  0  0  0  0
 26 21  1  0  0  0  0
 26 46  1  0  0  0  0
 27 24  1  0  0  0  0
 27 42  1  0  0  0  0
 30  6  1  0  0  0  0
 31  8  1  0  0  0  0
 32 13  1  0  0  0  0
 33 15  1  0  0  0  0
 34 19  1  0  0  0  0
 36 22  1  0  0  0  0
 39 23  1  0  0  0  0
 41 27  1  0  0  0  0
 43 27  1  0  0  0  0
 45 25  1  0  0  0  0
 47 26  1  0  0  0  0
M  END