AMF35
  Mrv1674 09121610113D          

 23 23  0  0  0  0            999 V2000
    0.0000    0.0000    0.0000 O   0  0  0  0  0  0  0  0  0  0  0  0
    1.3698    0.0000    0.0000 C   0  0  0  0  0  0  0  0  0  0  0  0
    2.1673    0.0000    1.1576 C   0  0  0  0  0  0  0  0  0  0  0  0
    3.5624   -0.0212    0.9914 C   0  0  0  0  0  0  0  0  0  0  0  0
    4.5194    0.0224    2.1377 C   0  0  1  0  0  0  0  0  0  0  0  0
    4.3211   -1.0210    3.0748 O   0  0  0  0  0  0  0  0  0  0  0  0
    1.5558   -0.0235    2.5214 C   0  0  1  0  0  0  0  0  0  0  0  0
    0.5574    0.9895    2.5922 O   0  0  0  0  0  0  0  0  0  0  0  0
    1.9822   -0.0329   -1.2926 C   0  0  0  0  0  0  0  0  0  0  0  0
    3.3225   -0.0590   -1.4318 N   0  0  0  0  0  0  0  0  0  0  0  0
    4.0769   -0.0517   -0.3189 C   0  0  0  0  0  0  0  0  0  0  0  0
    1.0917   -0.0441   -2.4900 C   0  0  0  0  0  0  0  0  0  0  0  0
    4.4166   -1.8561    2.6018 H   0  0  0  0  0  0  0  0  0  0  0  0
    5.5789   -0.0087    1.7602 H   0  0  0  0  0  0  0  0  0  0  0  0
    4.3741    0.9655    2.7356 H   0  0  0  0  0  0  0  0  0  0  0  0
    0.2871    1.0447    3.5158 H   0  0  0  0  0  0  0  0  0  0  0  0
    1.0724   -1.0264    2.6940 H   0  0  0  0  0  0  0  0  0  0  0  0
    2.3308    0.1449    3.3175 H   0  0  0  0  0  0  0  0  0  0  0  0
    5.1684   -0.0674   -0.4936 H   0  0  0  0  0  0  0  0  0  0  0  0
    0.3805    0.8168   -2.4221 H   0  0  0  0  0  0  0  0  0  0  0  0
    1.6640    0.0264   -3.4460 H   0  0  0  0  0  0  0  0  0  0  0  0
    0.4946   -0.9900   -2.4899 H   0  0  0  0  0  0  0  0  0  0  0  0
   -0.3190    0.2046    0.8932 H   0  0  0  0  0  0  0  0  0  0  0  0
  1 23  1  0  0  0  0
  2  1  1  0  0  0  0
  2  3  1  0  0  0  0
  3  7  1  0  0  0  0
  4  3  2  0  0  0  0
  4  5  1  0  0  0  0
  5 15  1  0  0  0  0
  5  6  1  0  0  0  0
  7  8  1  0  0  0  0
  7 17  1  0  0  0  0
  7 18  1  0  0  0  0
  8 16  1  0  0  0  0
  9  2  2  0  0  0  0
 10  9  1  0  0  0  0
 10 11  2  0  0  0  0
 11  4  1  0  0  0  0
 12  9  1  0  0  0  0
 12 22  1  0  0  0  0
 12 20  1  0  0  0  0
 13  6  1  0  0  0  0
 14  5  1  0  0  0  0
 19 11  1  0  0  0  0
 21 12  1  0  0  0  0
M  END