AMF31
  Mrv1674 09121610113D          

 48 51  0  0  0  0            999 V2000
    0.0000    0.0000    0.0000 F   0  0  0  0  0  0  0  0  0  0  0  0
    1.3581    0.0000    0.0000 C   0  0  0  0  0  0  0  0  0  0  0  0
    2.0628    0.0000    1.2414 C   0  0  0  0  0  0  0  0  0  0  0  0
    1.3975    0.0605    2.4830 N   0  0  0  0  0  0  0  0  0  0  0  0
    0.0234    0.4641    2.5892 C   0  0  1  0  0  0  0  0  0  0  0  0
   -0.4788    1.3139    3.7424 C   0  0  2  0  0  0  0  0  0  0  0  0
   -0.4231    1.8985    2.3656 C   0  0  2  0  0  0  0  0  0  0  0  0
    2.0952   -0.1797    3.6435 C   0  0  0  0  0  0  0  0  0  0  0  0
    3.4516   -0.3651    3.6935 C   0  0  0  0  0  0  0  0  0  0  0  0
    4.0965   -0.6952    4.9605 C   0  0  0  0  0  0  0  0  0  0  0  0
    3.3118   -0.4539    6.0643 O   0  0  0  0  0  0  0  0  0  0  0  0
    5.2108   -1.1659    5.1930 O   0  0  0  0  0  0  0  0  0  0  0  0
    3.4756   -0.1193    1.2332 C   0  0  0  0  0  0  0  0  0  0  0  0
    4.2626   -0.2181    2.4854 C   0  0  0  0  0  0  0  0  0  0  0  0
    5.4968   -0.1614    2.4831 O   0  0  0  0  0  0  0  0  0  0  0  0
    4.1589   -0.1565    0.0013 C   0  0  0  0  0  0  0  0  0  0  0  0
    5.5024   -0.2569   -0.0366 F   0  0  0  0  0  0  0  0  0  0  0  0
    2.0392   -0.0142   -1.2555 C   0  0  0  0  0  0  0  0  0  0  0  0
    1.2953   -0.0497   -2.4455 N   0  0  0  0  0  0  0  0  0  0  0  0
    0.4512    1.0954   -2.7426 C   0  0  2  0  0  0  0  0  0  0  0  0
   -0.6242    0.7555   -3.8121 C   0  0  2  0  0  0  0  0  0  0  0  0
   -0.0193    0.1560   -4.9971 N   0  0  1  0  0  0  0  0  0  0  0  0
   -1.3796    2.0397   -4.1433 C   0  0  0  0  0  0  0  0  0  0  0  0
    1.8752   -0.6706   -3.6218 C   0  0  2  0  0  0  0  0  0  0  0  0
    0.7836   -1.0191   -4.6724 C   0  0  2  0  0  0  0  0  0  0  0  0
    1.4817   -1.5936   -5.9018 C   0  0  0  0  0  0  0  0  0  0  0  0
    3.4607   -0.0710   -1.2262 C   0  0  0  0  0  0  0  0  0  0  0  0
    4.1914   -0.0561   -2.3675 F   0  0  0  0  0  0  0  0  0  0  0  0
    0.2273    1.6889    4.5058 H   0  0  0  0  0  0  0  0  0  0  0  0
   -1.4551    1.0418    4.1834 H   0  0  0  0  0  0  0  0  0  0  0  0
   -1.3566    2.0541    1.7954 H   0  0  0  0  0  0  0  0  0  0  0  0
    0.3275    2.6801    2.1500 H   0  0  0  0  0  0  0  0  0  0  0  0
   -0.6475   -0.3470    2.2180 H   0  0  0  0  0  0  0  0  0  0  0  0
    3.8072   -0.6951    6.8632 H   0  0  0  0  0  0  0  0  0  0  0  0
    1.4820   -0.2233    4.5703 H   0  0  0  0  0  0  0  0  0  0  0  0
   -0.7255   -0.0783   -5.6680 H   0  0  0  0  0  0  0  0  0  0  0  0
   -1.8086    2.4638   -3.2042 H   0  0  0  0  0  0  0  0  0  0  0  0
   -0.7021    2.7978   -4.6041 H   0  0  0  0  0  0  0  0  0  0  0  0
   -2.2146    1.8310   -4.8541 H   0  0  0  0  0  0  0  0  0  0  0  0
   -1.3592    0.0368   -3.3298 H   0  0  0  0  0  0  0  0  0  0  0  0
    1.0728    1.9605   -3.1147 H   0  0  0  0  0  0  0  0  0  0  0  0
   -0.0823    1.4159   -1.8061 H   0  0  0  0  0  0  0  0  0  0  0  0
    2.1540   -0.8373   -6.3732 H   0  0  0  0  0  0  0  0  0  0  0  0
    2.0928   -2.4761   -5.5954 H   0  0  0  0  0  0  0  0  0  0  0  0
    0.7318   -1.9246   -6.6596 H   0  0  0  0  0  0  0  0  0  0  0  0
    0.1351   -1.8385   -4.2287 H   0  0  0  0  0  0  0  0  0  0  0  0
    2.3868   -1.6230   -3.3124 H   0  0  0  0  0  0  0  0  0  0  0  0
    2.6379    0.0033   -4.1100 H   0  0  0  0  0  0  0  0  0  0  0  0
  1  2  1  0  0  0  0
  2  3  1  0  0  0  0
  3  4  1  0  0  0  0
  4  5  1  0  0  0  0
  4  8  1  0  0  0  0
  5  6  1  0  0  0  0
  6 30  1  0  0  0  0
  6 29  1  0  0  0  0
  7  5  1  0  0  0  0
  7  6  1  0  0  0  0
  8  9  2  0  0  0  0
  8 35  1  0  0  0  0
  9 10  1  0  0  0  0
 10 12  2  0  0  0  0
 10 11  1  0  0  0  0
 11 34  1  0  0  0  0
 13  3  2  0  0  0  0
 13 14  1  0  0  0  0
 14  9  1  0  0  0  0
 15 14  2  0  0  0  0
 16 13  1  0  0  0  0
 17 16  1  0  0  0  0
 18  2  2  0  0  0  0
 18 27  1  0  0  0  0
 19 18  1  0  0  0  0
 20 19  1  0  0  0  0
 20 42  1  0  0  0  0
 21 20  1  0  0  0  0
 21 40  1  1  0  0  0
 22 21  1  0  0  0  0
 22 25  1  0  0  0  0
 23 21  1  0  0  0  0
 23 37  1  0  0  0  0
 24 19  1  0  0  0  0
 24 47  1  0  0  0  0
 25 24  1  0  0  0  0
 25 46  1  1  0  0  0
 26 25  1  0  0  0  0
 26 44  1  0  0  0  0
 27 16  2  0  0  0  0
 28 27  1  0  0  0  0
 31  7  1  0  0  0  0
 32  7  1  0  0  0  0
 33  5  1  0  0  0  0
 36 22  1  0  0  0  0
 38 23  1  0  0  0  0
 39 23  1  0  0  0  0
 41 20  1  0  0  0  0
 43 26  1  0  0  0  0
 45 26  1  0  0  0  0
 48 24  1  0  0  0  0
M  END