AMF49
  Mrv1674 09121610113D          

 28 29  0  0  0  0            999 V2000
    0.0000    0.0000    0.0000 C   0  0  0  0  0  0  0  0  0  0  0  0
    1.3811    0.0000    0.0000 C   0  0  0  0  0  0  0  0  0  0  0  0
    2.1244    0.0000    1.1914 C   0  0  0  0  0  0  0  0  0  0  0  0
    3.7829    0.0277    1.1720 S   0  0  1  0  0  0  0  0  0  0  0  0
    4.1910   -1.5696    1.1996 N   0  0  0  0  0  0  0  0  0  0  0  0
    4.2558   -2.4280    0.1128 C   0  0  0  0  0  0  0  0  0  0  0  0
    4.3810   -2.0093   -1.2995 C   0  0  0  0  0  0  0  0  0  0  0  0
    4.4142   -3.1939   -1.9989 C   0  0  0  0  0  0  0  0  0  0  0  0
    4.5297   -3.5624   -3.4083 C   0  0  0  0  0  0  0  0  0  0  0  0
    4.2210   -3.7938    0.1597 N   0  0  0  0  0  0  0  0  0  0  0  0
    4.3188   -4.2583   -1.0688 O   0  0  0  0  0  0  0  0  0  0  0  0
    4.2293    0.6251   -0.0228 O   0  0  0  0  0  0  0  0  0  0  0  0
    4.2594    0.5747    2.3823 O   0  0  0  0  0  0  0  0  0  0  0  0
   -0.7147    0.0054    1.2306 C   0  0  0  0  0  0  0  0  0  0  0  0
    0.0339    0.0106    2.4410 C   0  0  0  0  0  0  0  0  0  0  0  0
    1.4144    0.0106    2.4032 C   0  0  0  0  0  0  0  0  0  0  0  0
   -2.0846    0.0413    1.2495 N   0  0  0  0  0  0  0  0  0  0  0  0
   -0.5463    0.0025   -0.9546 H   0  0  0  0  0  0  0  0  0  0  0  0
    1.9233    0.0105   -0.9639 H   0  0  0  0  0  0  0  0  0  0  0  0
    4.4542   -0.9833   -1.6554 H   0  0  0  0  0  0  0  0  0  0  0  0
    4.5237   -2.6431   -4.0441 H   0  0  0  0  0  0  0  0  0  0  0  0
    5.4845   -4.1210   -3.5830 H   0  0  0  0  0  0  0  0  0  0  0  0
    3.6777   -4.2234   -3.7089 H   0  0  0  0  0  0  0  0  0  0  0  0
    4.3776   -2.0101    2.0760 H   0  0  0  0  0  0  0  0  0  0  0  0
   -0.4859    0.0223    3.4103 H   0  0  0  0  0  0  0  0  0  0  0  0
    1.9819    0.0339    3.3523 H   0  0  0  0  0  0  0  0  0  0  0  0
   -2.5864   -0.0842    0.4071 H   0  0  0  0  0  0  0  0  0  0  0  0
   -2.5626   -0.0760    2.1068 H   0  0  0  0  0  0  0  0  0  0  0  0
  1 14  1  0  0  0  0
  2  1  2  0  0  0  0
  2  3  1  0  0  0  0
  3 16  2  0  0  0  0
  4  3  1  0  0  0  0
  4  5  1  0  0  0  0
  4 13  2  0  0  0  0
  5 24  1  0  0  0  0
  6  5  1  0  0  0  0
  6 10  2  0  0  0  0
  7  6  1  0  0  0  0
  8  7  2  0  0  0  0
  8 11  1  0  0  0  0
  9  8  1  0  0  0  0
 11 10  1  0  0  0  0
 12  4  2  0  0  0  0
 14 17  1  0  0  0  0
 14 15  2  0  0  0  0
 15 25  1  0  0  0  0
 16 15  1  0  0  0  0
 16 26  1  0  0  0  0
 17 28  1  0  0  0  0
 18  1  1  0  0  0  0
 19  2  1  0  0  0  0
 20  7  1  0  0  0  0
 21  9  1  0  0  0  0
 22  9  1  0  0  0  0
 23  9  1  0  0  0  0
 27 17  1  0  0  0  0
M  END