AMF45
  Mrv1674 09121610113D          

 35 36  0  0  0  0            999 V2000
    0.0000    0.0000    0.0000 S   0  0  1  0  0  0  0  0  0  0  0  0
    1.4013    0.0000    0.0000 O   0  0  0  0  0  0  0  0  0  0  0  0
   -0.6215    0.0000   -1.2704 O   0  0  0  0  0  0  0  0  0  0  0  0
   -0.6031   -1.3519    0.7525 N   0  0  0  0  0  0  0  0  0  0  0  0
   -0.3004   -1.8260    2.0224 C   0  0  0  0  0  0  0  0  0  0  0  0
    0.5566   -1.0990    2.8179 N   0  0  0  0  0  0  0  0  0  0  0  0
    0.8344   -1.6192    4.0328 C   0  0  0  0  0  0  0  0  0  0  0  0
   -0.8609   -3.0568    2.4983 C   0  0  0  0  0  0  0  0  0  0  0  0
   -1.6235   -3.8301    1.6495 O   0  0  0  0  0  0  0  0  0  0  0  0
   -2.9923   -3.9514    2.0472 C   0  0  0  0  0  0  0  0  0  0  0  0
   -0.4840   -3.4853    3.8014 C   0  0  0  0  0  0  0  0  0  0  0  0
   -1.0561   -4.6574    4.2325 O   0  0  0  0  0  0  0  0  0  0  0  0
   -0.6598   -5.1531    5.5150 C   0  0  0  0  0  0  0  0  0  0  0  0
    0.3700   -2.7683    4.5840 N   0  0  0  0  0  0  0  0  0  0  0  0
   -0.5846    1.2615    0.9009 C   0  0  0  0  0  0  0  0  0  0  0  0
    0.2072    1.8880    1.8766 C   0  0  0  0  0  0  0  0  0  0  0  0
   -0.2554    2.9683    2.6057 C   0  0  0  0  0  0  0  0  0  0  0  0
   -1.5655    3.4719    2.3860 C   0  0  0  0  0  0  0  0  0  0  0  0
   -2.0640    4.5036    3.1475 N   0  0  0  0  0  0  0  0  0  0  0  0
   -1.8743    1.7713    0.6781 C   0  0  0  0  0  0  0  0  0  0  0  0
   -2.3668    2.8476    1.3899 C   0  0  0  0  0  0  0  0  0  0  0  0
    1.5356   -1.0296    4.6621 H   0  0  0  0  0  0  0  0  0  0  0  0
   -3.0625   -4.4281    3.0547 H   0  0  0  0  0  0  0  0  0  0  0  0
   -3.4335   -4.6127    1.2604 H   0  0  0  0  0  0  0  0  0  0  0  0
   -3.4859   -2.9504    2.0511 H   0  0  0  0  0  0  0  0  0  0  0  0
   -1.2379   -6.1083    5.5991 H   0  0  0  0  0  0  0  0  0  0  0  0
   -0.9513   -4.4358    6.3185 H   0  0  0  0  0  0  0  0  0  0  0  0
    0.4387   -5.3472    5.5381 H   0  0  0  0  0  0  0  0  0  0  0  0
   -1.2269   -1.9544    0.2538 H   0  0  0  0  0  0  0  0  0  0  0  0
   -2.8922    4.9540    2.8447 H   0  0  0  0  0  0  0  0  0  0  0  0
   -1.4295    5.0354    3.6909 H   0  0  0  0  0  0  0  0  0  0  0  0
    0.3953    3.4337    3.3607 H   0  0  0  0  0  0  0  0  0  0  0  0
    1.2317    1.5090    2.0543 H   0  0  0  0  0  0  0  0  0  0  0  0
   -3.3812    3.2201    1.1851 H   0  0  0  0  0  0  0  0  0  0  0  0
   -2.5020    1.3071   -0.1047 H   0  0  0  0  0  0  0  0  0  0  0  0
  1  2  2  0  0  0  0
  1  4  1  0  0  0  0
  1 15  1  0  0  0  0
  3  1  2  0  0  0  0
  4  5  1  0  0  0  0
  5  8  2  0  0  0  0
  5  6  1  0  0  0  0
  6  7  2  0  0  0  0
  7 14  1  0  0  0  0
  7 22  1  0  0  0  0
  8 11  1  0  0  0  0
  9  8  1  0  0  0  0
  9 10  1  0  0  0  0
 10 25  1  0  0  0  0
 10 23  1  0  0  0  0
 11 12  1  0  0  0  0
 11 14  2  0  0  0  0
 12 13  1  0  0  0  0
 13 28  1  0  0  0  0
 13 26  1  0  0  0  0
 13 27  1  0  0  0  0
 15 16  1  0  0  0  0
 16 33  1  0  0  0  0
 16 17  2  0  0  0  0
 17 32  1  0  0  0  0
 18 17  1  0  0  0  0
 18 19  1  0  0  0  0
 19 31  1  0  0  0  0
 20 15  2  0  0  0  0
 20 21  1  0  0  0  0
 21 18  2  0  0  0  0
 24 10  1  0  0  0  0
 29  4  1  0  0  0  0
 30 19  1  0  0  0  0
 34 21  1  0  0  0  0
 35 20  1  0  0  0  0
M  END