AMF4
  Mrv1674 09121610113D          

 43 45  0  0  0  0            999 V2000
    0.0000    0.0000    0.0000 S   0  0  0  0  0  0  0  0  0  0  0  0
    1.7843    0.0000    0.0000 C   0  0  1  0  0  0  0  0  0  0  0  0
    2.2805    0.0000    1.3922 N   0  0  2  0  0  0  0  0  0  0  0  0
    2.8608   -1.3216    1.2747 C   0  0  0  0  0  0  0  0  0  0  0  0
    3.4053   -2.0369    2.0958 O   0  0  0  0  0  0  0  0  0  0  0  0
    2.5438   -1.3627   -0.2614 C   0  0  1  0  0  0  0  0  0  0  0  0
    1.7874   -2.4616   -0.7258 N   0  0  0  0  0  0  0  0  0  0  0  0
    2.2508   -3.3020   -1.7212 C   0  0  0  0  0  0  0  0  0  0  0  0
    3.3867   -3.1869   -2.2144 O   0  0  0  0  0  0  0  0  0  0  0  0
    1.3096   -4.4399   -2.1937 C   0  0  2  0  0  0  0  0  0  0  0  0
    0.0748   -3.8861   -2.7161 N   0  0  2  0  0  0  0  0  0  0  0  0
    1.1126   -5.4130   -1.0599 C   0  0  0  0  0  0  0  0  0  0  0  0
    1.9711   -6.5150   -0.9621 C   0  0  0  0  0  0  0  0  0  0  0  0
    1.8185   -7.4316    0.0767 C   0  0  0  0  0  0  0  0  0  0  0  0
    0.8072   -7.2573    1.0215 C   0  0  0  0  0  0  0  0  0  0  0  0
    0.1026   -5.2385   -0.1080 C   0  0  0  0  0  0  0  0  0  0  0  0
   -0.0492   -6.1611    0.9270 C   0  0  0  0  0  0  0  0  0  0  0  0
   -0.1629    0.1347    1.8080 C   0  0  1  0  0  0  0  0  0  0  0  0
    1.2764    0.3046    2.3864 C   0  0  2  0  0  0  0  0  0  0  0  0
    1.4526    1.6966    2.9795 C   0  0  0  0  0  0  0  0  0  0  0  0
    1.7094    2.7108    2.1141 O   0  0  0  0  0  0  0  0  0  0  0  0
    1.3755    1.9812    4.1777 O   0  0  0  0  0  0  0  0  0  0  0  0
   -1.0589    1.3111    2.1071 C   0  0  0  0  0  0  0  0  0  0  0  0
   -0.7778   -1.1448    2.3288 C   0  0  0  0  0  0  0  0  0  0  0  0
   -0.6582   -4.5657   -2.6969 H   0  0  0  0  0  0  0  0  0  0  0  0
    0.2092   -3.5497   -3.6478 H   0  0  0  0  0  0  0  0  0  0  0  0
    0.6878   -7.9815    1.8408 H   0  0  0  0  0  0  0  0  0  0  0  0
    2.4998   -8.2922    0.1509 H   0  0  0  0  0  0  0  0  0  0  0  0
    2.7745   -6.6545   -1.7021 H   0  0  0  0  0  0  0  0  0  0  0  0
   -0.8461   -6.0199    1.6719 H   0  0  0  0  0  0  0  0  0  0  0  0
   -0.5765   -4.3740   -0.1659 H   0  0  0  0  0  0  0  0  0  0  0  0
    1.9013   -4.9706   -3.0080 H   0  0  0  0  0  0  0  0  0  0  0  0
    0.8264   -2.5064   -0.4594 H   0  0  0  0  0  0  0  0  0  0  0  0
    3.4780   -1.2285   -0.8741 H   0  0  0  0  0  0  0  0  0  0  0  0
    2.1752    0.8502   -0.6033 H   0  0  0  0  0  0  0  0  0  0  0  0
    1.8368    3.5356    2.6143 H   0  0  0  0  0  0  0  0  0  0  0  0
    1.4109   -0.4031    3.2650 H   0  0  0  0  0  0  0  0  0  0  0  0
   -0.6559    2.2453    1.6421 H   0  0  0  0  0  0  0  0  0  0  0  0
   -2.0832    1.1266    1.7000 H   0  0  0  0  0  0  0  0  0  0  0  0
   -1.1391    1.4642    3.2128 H   0  0  0  0  0  0  0  0  0  0  0  0
   -1.7647   -1.3248    1.8364 H   0  0  0  0  0  0  0  0  0  0  0  0
   -0.1129   -2.0186    2.1228 H   0  0  0  0  0  0  0  0  0  0  0  0
   -0.9425   -1.0731    3.4327 H   0  0  0  0  0  0  0  0  0  0  0  0
  1  2  1  0  0  0  0
  1 18  1  0  0  0  0
  2 35  1  6  0  0  0
  2  3  1  0  0  0  0
  3 19  1  0  0  0  0
  4  3  1  0  0  0  0
  4  5  2  0  0  0  0
  6  2  1  0  0  0  0
  6  4  1  0  0  0  0
  6 34  1  6  0  0  0
  7  6  1  0  0  0  0
  7 33  1  0  0  0  0
  8  7  1  0  0  0  0
  9  8  2  0  0  0  0
 10  8  1  0  0  0  0
 10 32  1  6  0  0  0
 10 12  1  0  0  0  0
 11 10  1  0  0  0  0
 11 25  1  0  0  0  0
 12 13  2  0  0  0  0
 12 16  1  0  0  0  0
 13 14  1  0  0  0  0
 14 28  1  0  0  0  0
 14 15  2  0  0  0  0
 15 27  1  0  0  0  0
 16 17  2  0  0  0  0
 17 15  1  0  0  0  0
 17 30  1  0  0  0  0
 18 23  1  0  0  0  0
 18 24  1  0  0  0  0
 18 19  1  0  0  0  0
 19 20  1  0  0  0  0
 19 37  1  1  0  0  0
 20 22  2  0  0  0  0
 21 20  1  0  0  0  0
 21 36  1  0  0  0  0
 23 40  1  0  0  0  0
 24 43  1  0  0  0  0
 26 11  1  0  0  0  0
 29 13  1  0  0  0  0
 31 16  1  0  0  0  0
 38 23  1  0  0  0  0
 39 23  1  0  0  0  0
 41 24  1  0  0  0  0
 42 24  1  0  0  0  0
M  END