AMF50
  Mrv1674 09121610113D          

 31 32  0  0  0  0            999 V2000
    0.0000    0.0000    0.0000 S   0  0  1  0  0  0  0  0  0  0  0  0
    1.4114    0.0000    0.0000 O   0  0  0  0  0  0  0  0  0  0  0  0
   -0.6408    0.0000   -1.2563 O   0  0  0  0  0  0  0  0  0  0  0  0
   -0.4536   -1.3224    0.8690 N   0  0  0  0  0  0  0  0  0  0  0  0
   -1.7341   -1.8796    0.9900 C   0  0  0  0  0  0  0  0  0  0  0  0
   -2.0721   -2.5289    2.1741 N   0  0  0  0  0  0  0  0  0  0  0  0
   -3.2074   -3.0594    2.3436 N   0  0  0  0  0  0  0  0  0  0  0  0
   -4.1691   -3.0094    1.3578 C   0  0  0  0  0  0  0  0  0  0  0  0
   -5.4178   -3.5680    1.5121 O   0  0  0  0  0  0  0  0  0  0  0  0
   -5.6893   -4.2256    2.7512 C   0  0  0  0  0  0  0  0  0  0  0  0
   -2.6792   -1.8063   -0.0806 C   0  0  0  0  0  0  0  0  0  0  0  0
   -3.9276   -2.3805    0.1093 C   0  0  0  0  0  0  0  0  0  0  0  0
   -0.5605    1.2744    0.9017 C   0  0  0  0  0  0  0  0  0  0  0  0
    0.1814    1.7736    1.9849 C   0  0  0  0  0  0  0  0  0  0  0  0
   -0.2541    2.8474    2.7363 C   0  0  0  0  0  0  0  0  0  0  0  0
   -1.4846    3.4889    2.4203 C   0  0  0  0  0  0  0  0  0  0  0  0
   -1.9150    4.5770    3.1334 N   0  0  0  0  0  0  0  0  0  0  0  0
   -1.7704    1.9154    0.5899 C   0  0  0  0  0  0  0  0  0  0  0  0
   -2.2366    2.9916    1.3191 C   0  0  0  0  0  0  0  0  0  0  0  0
   -4.9914   -5.0833    2.9025 H   0  0  0  0  0  0  0  0  0  0  0  0
   -6.7414   -4.5848    2.6172 H   0  0  0  0  0  0  0  0  0  0  0  0
   -5.6189   -3.5062    3.6016 H   0  0  0  0  0  0  0  0  0  0  0  0
   -4.7048   -2.3660   -0.6658 H   0  0  0  0  0  0  0  0  0  0  0  0
   -2.4255   -1.3157   -1.0362 H   0  0  0  0  0  0  0  0  0  0  0  0
    0.2237   -1.7478    1.4689 H   0  0  0  0  0  0  0  0  0  0  0  0
   -1.4428    4.8331    3.9633 H   0  0  0  0  0  0  0  0  0  0  0  0
   -2.8233    4.9341    2.9761 H   0  0  0  0  0  0  0  0  0  0  0  0
    0.3568    3.2101    3.5760 H   0  0  0  0  0  0  0  0  0  0  0  0
    1.1489    1.2987    2.2314 H   0  0  0  0  0  0  0  0  0  0  0  0
   -3.1881    3.4684    1.0415 H   0  0  0  0  0  0  0  0  0  0  0  0
   -2.3576    1.5508   -0.2736 H   0  0  0  0  0  0  0  0  0  0  0  0
  1  2  2  0  0  0  0
  1  4  1  0  0  0  0
  1 13  1  0  0  0  0
  3  1  2  0  0  0  0
  4  5  1  0  0  0  0
  4 25  1  0  0  0  0
  5  6  1  0  0  0  0
  6  7  2  0  0  0  0
  8  7  1  0  0  0  0
  8  9  1  0  0  0  0
  9 10  1  0  0  0  0
 10 20  1  0  0  0  0
 10 22  1  0  0  0  0
 11  5  2  0  0  0  0
 11 12  1  0  0  0  0
 12  8  2  0  0  0  0
 13 14  1  0  0  0  0
 14 29  1  0  0  0  0
 14 15  2  0  0  0  0
 15 28  1  0  0  0  0
 16 15  1  0  0  0  0
 16 17  1  0  0  0  0
 17 26  1  0  0  0  0
 18 13  2  0  0  0  0
 18 19  1  0  0  0  0
 19 16  2  0  0  0  0
 21 10  1  0  0  0  0
 23 12  1  0  0  0  0
 24 11  1  0  0  0  0
 27 17  1  0  0  0  0
 30 19  1  0  0  0  0
 31 18  1  0  0  0  0
M  END