AMF59
  Mrv1674 09121610113D          

 56 59  0  0  0  0            999 V2000
    0.0000    0.0000    0.0000 C   0  0  0  0  0  0  0  0  0  0  0  0
    1.4054    0.0000    0.0000 C   0  0  0  0  0  0  0  0  0  0  0  0
    2.0962    0.0000    1.2160 C   0  0  0  0  0  0  0  0  0  0  0  0
    1.4093    0.0290    2.4289 C   0  0  0  0  0  0  0  0  0  0  0  0
    0.0204    0.0532    2.4497 C   0  0  0  0  0  0  0  0  0  0  0  0
   -0.6851    0.0383    1.2359 C   0  0  0  0  0  0  0  0  0  0  0  0
    2.1847   -0.0659   -1.2976 C   0  0  1  0  0  0  0  0  0  0  0  0
    1.3935    0.4559   -2.5193 C   0  0  2  0  0  0  0  0  0  0  0  0
   -0.0798    0.2262   -2.4526 C   0  0  0  0  0  0  0  0  0  0  0  0
   -0.7169   -0.0338   -1.2733 C   0  0  0  0  0  0  0  0  0  0  0  0
   -2.0545    0.0720    1.1967 O   0  0  0  0  0  0  0  0  0  0  0  0
    3.4769    0.7517   -1.1790 C   0  0  0  0  0  0  0  0  0  0  0  0
    2.5169   -1.4306   -1.5656 O   0  0  0  0  0  0  0  0  0  0  0  0
   -2.0420   -0.3111   -1.1381 O   0  0  0  0  0  0  0  0  0  0  0  0
   -0.7712    0.3319   -3.7300 C   0  0  0  0  0  0  0  0  0  0  0  0
    0.0040    1.1146   -4.8058 C   0  0  2  0  0  0  0  0  0  0  0  0
    1.3683    0.4510   -5.0695 C   0  0  1  0  0  0  0  0  0  0  0  0
    1.9267   -0.1855   -3.8001 C   0  0  2  0  0  0  0  0  0  0  0  0
    0.3068    2.4245   -4.3260 O   0  0  0  0  0  0  0  0  0  0  0  0
   -1.8957   -0.1328   -3.9648 O   0  0  0  0  0  0  0  0  0  0  0  0
   -0.8600    1.2853   -6.0530 C   0  0  0  0  0  0  0  0  0  0  0  0
   -0.5439    0.7953   -7.2882 C   0  0  0  0  0  0  0  0  0  0  0  0
    0.7176    0.0656   -7.4592 C   0  0  0  0  0  0  0  0  0  0  0  0
    1.2536   -0.6067   -6.1907 C   0  0  1  0  0  0  0  0  0  0  0  0
   -1.9263    2.0500   -5.7330 O   0  0  0  0  0  0  0  0  0  0  0  0
   -1.4407    1.0319   -8.4460 C   0  0  0  0  0  0  0  0  0  0  0  0
   -1.2675    0.3447   -9.6170 N   0  0  0  0  0  0  0  0  0  0  0  0
   -2.4134    1.8286   -8.3599 O   0  0  0  0  0  0  0  0  0  0  0  0
    1.3013   -0.0312   -8.5478 O   0  0  0  0  0  0  0  0  0  0  0  0
    2.4754   -1.3899   -6.3476 N   0  0  2  0  0  0  0  0  0  0  0  0
    3.6384   -0.6346   -6.7592 C   0  0  0  0  0  0  0  0  0  0  0  0
    2.2749   -2.5882   -7.1356 C   0  0  0  0  0  0  0  0  0  0  0  0
   -2.3812    0.0670    2.1099 H   0  0  0  0  0  0  0  0  0  0  0  0
   -2.4701   -0.3384   -2.0124 H   0  0  0  0  0  0  0  0  0  0  0  0
   -0.5261    0.0805    3.4030 H   0  0  0  0  0  0  0  0  0  0  0  0
    1.9707    0.0336    3.3760 H   0  0  0  0  0  0  0  0  0  0  0  0
    3.1961   -0.0202    1.2269 H   0  0  0  0  0  0  0  0  0  0  0  0
    2.9537   -1.7739   -0.7763 H   0  0  0  0  0  0  0  0  0  0  0  0
    1.5653    1.5727   -2.5659 H   0  0  0  0  0  0  0  0  0  0  0  0
   -0.4312   -0.1553   -9.7966 H   0  0  0  0  0  0  0  0  0  0  0  0
   -1.8450    0.5865  -10.3859 H   0  0  0  0  0  0  0  0  0  0  0  0
   -0.5316    2.8513   -4.0993 H   0  0  0  0  0  0  0  0  0  0  0  0
   -2.5503    2.1485   -6.4810 H   0  0  0  0  0  0  0  0  0  0  0  0
    3.8250    0.1845   -6.0164 H   0  0  0  0  0  0  0  0  0  0  0  0
    3.5361   -0.1809   -7.7825 H   0  0  0  0  0  0  0  0  0  0  0  0
    4.5253   -1.3219   -6.7586 H   0  0  0  0  0  0  0  0  0  0  0  0
    2.0232   -2.3730   -8.2099 H   0  0  0  0  0  0  0  0  0  0  0  0
    3.2177   -3.1948   -7.1015 H   0  0  0  0  0  0  0  0  0  0  0  0
    1.4455   -3.1923   -6.6829 H   0  0  0  0  0  0  0  0  0  0  0  0
    4.2321    0.2050   -0.5654 H   0  0  0  0  0  0  0  0  0  0  0  0
    3.2657    1.7401   -0.7083 H   0  0  0  0  0  0  0  0  0  0  0  0
    3.9174    0.9191   -2.1911 H   0  0  0  0  0  0  0  0  0  0  0  0
    1.6763   -1.2807   -3.7706 H   0  0  0  0  0  0  0  0  0  0  0  0
    0.4462   -1.3410   -5.8748 H   0  0  0  0  0  0  0  0  0  0  0  0
    3.0450   -0.1102   -3.8208 H   0  0  0  0  0  0  0  0  0  0  0  0
    2.0642    1.2726   -5.4035 H   0  0  0  0  0  0  0  0  0  0  0  0
  1  6  1  0  0  0  0
  2  1  2  0  0  0  0
  2  3  1  0  0  0  0
  3 37  1  0  0  0  0
  3  4  2  0  0  0  0
  4  5  1  0  0  0  0
  4 36  1  0  0  0  0
  5 35  1  0  0  0  0
  6  5  2  0  0  0  0
  7  2  1  0  0  0  0
  7 13  1  6  0  0  0
  7 12  1  0  0  0  0
  8  7  1  0  0  0  0
  8 39  1  6  0  0  0
  8  9  1  0  0  0  0
  9 10  2  0  0  0  0
 10  1  1  0  0  0  0
 10 14  1  0  0  0  0
 11  6  1  0  0  0  0
 11 33  1  0  0  0  0
 12 51  1  0  0  0  0
 12 50  1  0  0  0  0
 13 38  1  0  0  0  0
 15  9  1  0  0  0  0
 16 15  1  0  0  0  0
 16 19  1  1  0  0  0
 17 16  1  0  0  0  0
 17 56  1  6  0  0  0
 17 18  1  0  0  0  0
 18  8  1  0  0  0  0
 18 53  1  0  0  0  0
 19 42  1  0  0  0  0
 20 15  2  0  0  0  0
 21 16  1  0  0  0  0
 21 25  1  0  0  0  0
 22 21  2  0  0  0  0
 23 22  1  0  0  0  0
 23 24  1  0  0  0  0
 24 17  1  0  0  0  0
 24 54  1  1  0  0  0
 26 22  1  0  0  0  0
 26 28  2  0  0  0  0
 27 26  1  0  0  0  0
 29 23  2  0  0  0  0
 30 24  1  0  0  0  0
 31 30  1  0  0  0  0
 31 46  1  0  0  0  0
 31 44  1  0  0  0  0
 32 30  1  0  0  0  0
 32 48  1  0  0  0  0
 32 49  1  0  0  0  0
 34 14  1  0  0  0  0
 40 27  1  0  0  0  0
 41 27  1  0  0  0  0
 43 25  1  0  0  0  0
 45 31  1  0  0  0  0
 47 32  1  0  0  0  0
 52 12  1  0  0  0  0
 55 18  1  0  0  0  0
M  END