AMF56
  Mrv1674 09121610113D          

 25 26  0  0  0  0            999 V2000
    0.0000    0.0000    0.0000 S   0  0  1  0  0  0  0  0  0  0  0  0
    1.4155    0.0000    0.0000 O   0  0  0  0  0  0  0  0  0  0  0  0
   -0.6171    0.0000   -1.2585 O   0  0  0  0  0  0  0  0  0  0  0  0
   -0.4050   -1.3635    0.8591 N   0  0  0  0  0  0  0  0  0  0  0  0
   -1.6797   -1.8293    1.1179 C   0  0  0  0  0  0  0  0  0  0  0  0
   -1.9581   -3.3846    1.8706 S   0  0  0  0  0  0  0  0  0  0  0  0
   -3.6155   -3.1435    1.7893 C   0  0  0  0  0  0  0  0  0  0  0  0
   -2.8163   -1.1627    0.8206 N   0  0  0  0  0  0  0  0  0  0  0  0
   -3.9049   -1.9243    1.2042 C   0  0  0  0  0  0  0  0  0  0  0  0
   -0.5568    1.2515    0.9260 C   0  0  0  0  0  0  0  0  0  0  0  0
    0.2325    1.7981    1.9518 C   0  0  0  0  0  0  0  0  0  0  0  0
   -0.1970    2.8670    2.7130 C   0  0  0  0  0  0  0  0  0  0  0  0
   -1.4756    3.4449    2.4755 C   0  0  0  0  0  0  0  0  0  0  0  0
   -1.9433    4.4692    3.2641 N   0  0  0  0  0  0  0  0  0  0  0  0
   -1.8135    1.8320    0.6878 C   0  0  0  0  0  0  0  0  0  0  0  0
   -2.2729    2.9036    1.4315 C   0  0  0  0  0  0  0  0  0  0  0  0
   -4.3446   -3.8631    2.1524 H   0  0  0  0  0  0  0  0  0  0  0  0
   -4.9062   -1.5157    1.0211 H   0  0  0  0  0  0  0  0  0  0  0  0
    0.3172   -1.9376    1.2346 H   0  0  0  0  0  0  0  0  0  0  0  0
   -1.3045    4.9425    3.8537 H   0  0  0  0  0  0  0  0  0  0  0  0
   -2.7479    4.9643    2.9683 H   0  0  0  0  0  0  0  0  0  0  0  0
    0.4510    3.2691    3.5055 H   0  0  0  0  0  0  0  0  0  0  0  0
    1.2344    1.3689    2.1378 H   0  0  0  0  0  0  0  0  0  0  0  0
   -3.2631    3.3306    1.2149 H   0  0  0  0  0  0  0  0  0  0  0  0
   -2.4447    1.4234   -0.1244 H   0  0  0  0  0  0  0  0  0  0  0  0
  1  2  2  0  0  0  0
  1  4  1  0  0  0  0
  1 10  1  0  0  0  0
  3  1  2  0  0  0  0
  4  5  1  0  0  0  0
  4 19  1  0  0  0  0
  5  6  1  0  0  0  0
  7  6  1  0  0  0  0
  7 17  1  0  0  0  0
  8  5  2  0  0  0  0
  8  9  1  0  0  0  0
  9  7  2  0  0  0  0
 10 11  1  0  0  0  0
 11 23  1  0  0  0  0
 11 12  2  0  0  0  0
 12 22  1  0  0  0  0
 13 12  1  0  0  0  0
 13 14  1  0  0  0  0
 14 20  1  0  0  0  0
 15 10  2  0  0  0  0
 15 16  1  0  0  0  0
 16 13  2  0  0  0  0
 18  9  1  0  0  0  0
 21 14  1  0  0  0  0
 24 16  1  0  0  0  0
 25 15  1  0  0  0  0
M  END