AMF5
  Mrv1674 09121610113D          

 28 29  0  0  0  0            999 V2000
    0.0000    0.0000    0.0000 C   0  0  0  0  0  0  0  0  0  0  0  0
    1.4216    0.0000    0.0000 C   0  0  0  0  0  0  0  0  0  0  0  0
    2.1381    0.0000    1.2418 N   0  3  0  0  0  0  0  0  0  0  0  0
    1.4450    0.5862    2.3564 C   0  0  0  0  0  0  0  0  0  0  0  0
   -0.0070    0.5056    2.3419 C   0  0  0  0  0  0  0  0  0  0  0  0
   -0.7264    0.2006    1.2462 N   0  3  0  0  0  0  0  0  0  0  0  0
   -0.7068   -0.1717   -1.2046 C   0  0  0  0  0  0  0  0  0  0  0  0
   -0.0142   -0.3166   -2.3994 C   0  0  0  0  0  0  0  0  0  0  0  0
    1.3821   -0.2866   -2.4105 C   0  0  0  0  0  0  0  0  0  0  0  0
    2.0977   -0.1290   -1.2304 C   0  0  0  0  0  0  0  0  0  0  0  0
    2.1494    1.0881    3.4251 C   0  0  0  0  0  0  0  0  0  0  0  0
    1.4288    2.4127    6.7160 C   0  0  0  0  0  0  0  0  0  0  0  0
    1.4731    1.4934    4.6016 N   0  0  0  0  0  0  0  0  0  0  0  0
    1.0274    1.3902    7.5394 O   0  0  0  0  0  0  0  0  0  0  0  0
    2.1262    1.9818    5.5205 N   0  0  0  0  0  0  0  0  0  0  0  0
    0.5246    1.7851    8.8186 C   0  0  0  0  0  0  0  0  0  0  0  0
    1.2889    3.5782    7.0944 O   0  0  0  0  0  0  0  0  0  0  0  0
    3.4021    0.4208    1.1113 O   0  5  0  0  0  0  0  0  0  0  0  0
   -1.9419    0.1212    1.2382 O   0  5  0  0  0  0  0  0  0  0  0  0
   -0.5750    0.7110    3.2678 H   0  0  0  0  0  0  0  0  0  0  0  0
    3.2534    1.1747    3.3656 H   0  0  0  0  0  0  0  0  0  0  0  0
    1.3133    2.3361    9.3848 H   0  0  0  0  0  0  0  0  0  0  0  0
   -0.3784    2.4289    8.6901 H   0  0  0  0  0  0  0  0  0  0  0  0
    0.2708    0.8116    9.3064 H   0  0  0  0  0  0  0  0  0  0  0  0
    3.1989   -0.0974   -1.2507 H   0  0  0  0  0  0  0  0  0  0  0  0
    1.9250   -0.3867   -3.3637 H   0  0  0  0  0  0  0  0  0  0  0  0
   -0.5707   -0.4506   -3.3396 H   0  0  0  0  0  0  0  0  0  0  0  0
   -1.8113   -0.1851   -1.1853 H   0  0  0  0  0  0  0  0  0  0  0  0
  1  2  2  0  0  0  0
  1  6  1  0  0  0  0
  2  3  1  0  0  0  0
  3  4  2  0  0  0  0
  4 11  1  0  0  0  0
  5  4  1  0  0  0  0
  5 20  1  0  0  0  0
  6  5  2  0  0  0  0
  7  1  1  0  0  0  0
  7 28  1  0  0  0  0
  8  7  2  0  0  0  0
  9  8  1  0  0  0  0
  9 10  2  0  0  0  0
 10  2  1  0  0  0  0
 11 13  2  0  0  0  0
 12 17  2  0  0  0  0
 12 14  1  0  0  0  0
 13 15  1  0  0  0  0
 14 16  1  0  0  0  0
 15 12  1  0  0  0  0
 16 24  1  0  0  0  0
 16 22  1  0  0  0  0
 18  3  1  0  0  0  0
 19  6  1  0  0  0  0
 21 11  1  0  0  0  0
 23 16  1  0  0  0  0
 25 10  1  0  0  0  0
 26  9  1  0  0  0  0
 27  8  1  0  0  0  0
M  CHG  4   3   1   6   1  18  -1  19  -1
M  END