AMF6
  Mrv1674 09121610113D          

 42 44  0  0  0  0            999 V2000
    0.0000    0.0000    0.0000 S   0  0  0  0  0  0  0  0  0  0  0  0
    1.7757    0.0000    0.0000 C   0  0  1  0  0  0  0  0  0  0  0  0
    2.4163    0.0000    1.3195 N   0  0  2  0  0  0  0  0  0  0  0  0
    3.0235   -1.2914    1.1568 C   0  0  0  0  0  0  0  0  0  0  0  0
    3.7145   -1.9709    1.8932 O   0  0  0  0  0  0  0  0  0  0  0  0
    1.8030    0.5210    2.4629 C   0  0  0  0  0  0  0  0  0  0  0  0
    2.5921    0.4366    3.7268 C   0  0  0  0  0  0  0  0  0  0  0  0
    3.8365    0.9796    3.6572 O   0  0  0  0  0  0  0  0  0  0  0  0
    2.2412   -0.0402    4.8085 O   0  0  0  0  0  0  0  0  0  0  0  0
    2.4924   -1.3738   -0.3201 C   0  0  1  0  0  0  0  0  0  0  0  0
    1.6763   -2.4806   -0.6377 N   0  0  0  0  0  0  0  0  0  0  0  0
    1.9815   -3.3567   -1.6672 C   0  0  0  0  0  0  0  0  0  0  0  0
    3.0159   -3.2396   -2.3437 O   0  0  0  0  0  0  0  0  0  0  0  0
    0.9866   -4.5110   -1.9380 C   0  0  2  0  0  0  0  0  0  0  0  0
   -0.2834   -3.9978   -2.3974 N   0  0  2  0  0  0  0  0  0  0  0  0
    0.9622   -5.4215   -0.7355 C   0  0  0  0  0  0  0  0  0  0  0  0
    1.8287   -6.5201   -0.7048 C   0  0  0  0  0  0  0  0  0  0  0  0
    1.8380   -7.3878    0.3833 C   0  0  0  0  0  0  0  0  0  0  0  0
    0.9651   -7.1526    1.4551 C   0  0  0  0  0  0  0  0  0  0  0  0
    0.9062   -7.9665    2.5605 O   0  0  0  0  0  0  0  0  0  0  0  0
    0.0998   -5.1968    0.3445 C   0  0  0  0  0  0  0  0  0  0  0  0
    0.0900   -6.0529    1.4395 C   0  0  0  0  0  0  0  0  0  0  0  0
   -0.2784    1.2140    1.2607 C   0  0  2  0  0  0  0  0  0  0  0  0
    0.5733    1.1065    2.4690 C   0  0  0  0  0  0  0  0  0  0  0  0
   -0.0199    1.7176    3.6822 C   0  0  0  0  0  0  0  0  0  0  0  0
    4.2928    0.8433    4.5057 H   0  0  0  0  0  0  0  0  0  0  0  0
   -0.7966   -3.5518   -1.6635 H   0  0  0  0  0  0  0  0  0  0  0  0
   -0.8355   -4.7361   -2.7869 H   0  0  0  0  0  0  0  0  0  0  0  0
    1.5837   -8.6523    2.4652 H   0  0  0  0  0  0  0  0  0  0  0  0
    2.5247   -8.2458    0.4038 H   0  0  0  0  0  0  0  0  0  0  0  0
    2.5167   -6.7001   -1.5463 H   0  0  0  0  0  0  0  0  0  0  0  0
   -0.5831   -5.8833    2.2918 H   0  0  0  0  0  0  0  0  0  0  0  0
   -0.5860   -4.3353    0.3479 H   0  0  0  0  0  0  0  0  0  0  0  0
    1.4398   -5.0826   -2.8093 H   0  0  0  0  0  0  0  0  0  0  0  0
    0.8444   -2.6115   -0.1089 H   0  0  0  0  0  0  0  0  0  0  0  0
    3.3258   -1.2635   -1.0678 H   0  0  0  0  0  0  0  0  0  0  0  0
    2.1579    0.8416   -0.6276 H   0  0  0  0  0  0  0  0  0  0  0  0
    0.7314    1.8554    4.4983 H   0  0  0  0  0  0  0  0  0  0  0  0
   -0.8364    1.0572    4.0715 H   0  0  0  0  0  0  0  0  0  0  0  0
   -0.4607    2.7154    3.4332 H   0  0  0  0  0  0  0  0  0  0  0  0
   -1.3582    1.0892    1.5395 H   0  0  0  0  0  0  0  0  0  0  0  0
   -0.1557    2.2383    0.8212 H   0  0  0  0  0  0  0  0  0  0  0  0
  1 23  1  0  0  0  0
  2  1  1  0  0  0  0
  2 37  1  6  0  0  0
  2  3  1  0  0  0  0
  3  6  1  0  0  0  0
  4  3  1  0  0  0  0
  4  5  2  0  0  0  0
  6 24  2  0  0  0  0
  6  7  1  0  0  0  0
  7  9  2  0  0  0  0
  8  7  1  0  0  0  0
  8 26  1  0  0  0  0
 10  2  1  0  0  0  0
 10  4  1  0  0  0  0
 10 36  1  6  0  0  0
 11 10  1  0  0  0  0
 11 35  1  0  0  0  0
 12 11  1  0  0  0  0
 13 12  2  0  0  0  0
 14 12  1  0  0  0  0
 14 34  1  6  0  0  0
 14 16  1  0  0  0  0
 15 14  1  0  0  0  0
 15 27  1  0  0  0  0
 16 17  2  0  0  0  0
 16 21  1  0  0  0  0
 17 18  1  0  0  0  0
 18 30  1  0  0  0  0
 18 19  2  0  0  0  0
 19 20  1  0  0  0  0
 21 33  1  0  0  0  0
 21 22  2  0  0  0  0
 22 19  1  0  0  0  0
 22 32  1  0  0  0  0
 23 41  1  0  0  0  0
 23 24  1  0  0  0  0
 24 25  1  0  0  0  0
 25 39  1  0  0  0  0
 25 38  1  0  0  0  0
 28 15  1  0  0  0  0
 29 20  1  0  0  0  0
 31 17  1  0  0  0  0
 40 25  1  0  0  0  0
 42 23  1  0  0  0  0
M  END