AMF8
  Mrv1674 09121610113D          

 54 57  0  0  0  0            999 V2000
    0.0000    0.0000    0.0000 S   0  0  0  0  0  0  0  0  0  0  0  0
    1.7738    0.0000    0.0000 C   0  0  1  0  0  0  0  0  0  0  0  0
    2.4060    0.0000    1.3250 N   0  0  0  0  0  0  0  0  0  0  0  0
    3.0532   -1.2741    1.1499 C   0  0  0  0  0  0  0  0  0  0  0  0
    3.7688   -1.9278    1.8837 O   0  0  0  0  0  0  0  0  0  0  0  0
    1.7912    0.5159    2.4607 C   0  0  0  0  0  0  0  0  0  0  0  0
    2.5736    0.4146    3.7322 C   0  0  0  0  0  0  0  0  0  0  0  0
    3.6960    1.1794    3.7494 O   0  0  0  0  0  0  0  0  0  0  0  0
    2.3111   -0.2502    4.7345 O   0  0  0  0  0  0  0  0  0  0  0  0
    2.5145   -1.3587   -0.3249 C   0  0  1  0  0  0  0  0  0  0  0  0
    1.7355   -2.4952   -0.6328 N   0  0  0  0  0  0  0  0  0  0  0  0
    2.0506   -3.3206   -1.7046 C   0  0  0  0  0  0  0  0  0  0  0  0
    3.0502   -3.1364   -2.4157 O   0  0  0  0  0  0  0  0  0  0  0  0
    1.1167   -4.4888   -1.9292 C   0  0  0  0  0  0  0  0  0  0  0  0
    1.3523   -5.7228   -1.5633 N   0  0  0  0  0  0  0  0  0  0  0  0
    2.4752   -5.9276   -0.9097 O   0  0  0  0  0  0  0  0  0  0  0  0
    2.7143   -7.3143   -0.5652 C   0  0  0  0  0  0  0  0  0  0  0  0
   -0.1167   -4.1613   -2.6568 C   0  0  0  0  0  0  0  0  0  0  0  0
   -0.6282   -2.8655   -2.6046 N   0  0  0  0  0  0  0  0  0  0  0  0
   -1.7518   -2.8005   -3.3454 C   0  0  0  0  0  0  0  0  0  0  0  0
   -2.6134   -1.7079   -3.4430 N   0  0  1  0  0  0  0  0  0  0  0  0
   -0.8360   -5.0527   -3.4438 C   0  0  0  0  0  0  0  0  0  0  0  0
   -2.1747   -4.3186   -4.1112 S   0  0  0  0  0  0  0  0  0  0  0  0
   -0.2663    1.2403    1.2363 C   0  0  2  0  0  0  0  0  0  0  0  0
    0.5670    1.1191    2.4572 C   0  0  0  0  0  0  0  0  0  0  0  0
    0.0058    1.7648    3.6632 C   0  0  2  0  0  0  0  0  0  0  0  0
   -1.3192    0.7042    4.2091 S   0  0  0  0  0  0  0  0  0  0  0  0
   -2.0400    1.5406    5.5370 C   0  0  0  0  0  0  0  0  0  0  0  0
   -3.2215    0.8997    6.0562 N   0  0  2  0  0  0  0  0  0  0  0  0
   -3.6745    1.3930    7.2722 N   0  0  1  0  0  0  0  0  0  0  0  0
   -3.3999    2.7362    7.6335 C   0  0  0  0  0  0  0  0  0  0  0  0
   -4.1112    3.2921    8.4758 O   0  0  0  0  0  0  0  0  0  0  0  0
   -3.1760   -0.5671    5.9905 C   0  0  0  0  0  0  0  0  0  0  0  0
   -1.5671    2.7086    5.9140 N   0  0  0  0  0  0  0  0  0  0  0  0
   -2.1501    3.3740    7.0105 C   0  0  0  0  0  0  0  0  0  0  0  0
   -1.7125    4.4360    7.4555 O   0  0  0  0  0  0  0  0  0  0  0  0
    4.1663    1.0422    4.5907 H   0  0  0  0  0  0  0  0  0  0  0  0
    3.6890   -7.2480   -0.0201 H   0  0  0  0  0  0  0  0  0  0  0  0
    1.9055   -7.7012    0.0979 H   0  0  0  0  0  0  0  0  0  0  0  0
    2.8080   -7.9366   -1.4859 H   0  0  0  0  0  0  0  0  0  0  0  0
   -2.3264   -0.9110   -2.9089 H   0  0  0  0  0  0  0  0  0  0  0  0
   -2.8184   -1.4683   -4.3918 H   0  0  0  0  0  0  0  0  0  0  0  0
   -0.5683   -6.0955   -3.6118 H   0  0  0  0  0  0  0  0  0  0  0  0
    0.8405   -2.5779   -0.2021 H   0  0  0  0  0  0  0  0  0  0  0  0
    3.3475   -1.2252   -1.0705 H   0  0  0  0  0  0  0  0  0  0  0  0
    2.1563    0.8492   -0.6187 H   0  0  0  0  0  0  0  0  0  0  0  0
   -4.6249    1.0955    7.4363 H   0  0  0  0  0  0  0  0  0  0  0  0
   -2.3442   -1.0106    6.5992 H   0  0  0  0  0  0  0  0  0  0  0  0
   -3.0442   -0.8449    4.9087 H   0  0  0  0  0  0  0  0  0  0  0  0
   -4.1528   -0.9882    6.3479 H   0  0  0  0  0  0  0  0  0  0  0  0
   -0.3850    2.7850    3.4164 H   0  0  0  0  0  0  0  0  0  0  0  0
    0.7627    1.8837    4.4792 H   0  0  0  0  0  0  0  0  0  0  0  0
   -1.3544    1.1479    1.5015 H   0  0  0  0  0  0  0  0  0  0  0  0
   -0.1085    2.2559    0.7883 H   0  0  0  0  0  0  0  0  0  0  0  0
  1 24  1  0  0  0  0
  2  1  1  0  0  0  0
  2 46  1  6  0  0  0
  2  3  1  0  0  0  0
  3  6  1  0  0  0  0
  4  3  1  0  0  0  0
  4  5  2  0  0  0  0
  6  7  1  0  0  0  0
  7  8  1  0  0  0  0
  7  9  2  0  0  0  0
  8 37  1  0  0  0  0
 10  2  1  0  0  0  0
 10  4  1  0  0  0  0
 10 45  1  6  0  0  0
 11 10  1  0  0  0  0
 11 44  1  0  0  0  0
 12 11  1  0  0  0  0
 13 12  2  0  0  0  0
 14 12  1  0  0  0  0
 14 15  2  0  0  0  0
 15 16  1  0  0  0  0
 16 17  1  0  0  0  0
 17 38  1  0  0  0  0
 17 39  1  0  0  0  0
 18 14  1  0  0  0  0
 18 19  1  0  0  0  0
 20 19  2  0  0  0  0
 21 20  1  0  0  0  0
 21 41  1  0  0  0  0
 22 18  2  0  0  0  0
 23 20  1  0  0  0  0
 23 22  1  0  0  0  0
 24 53  1  0  0  0  0
 24 25  1  0  0  0  0
 25  6  2  0  0  0  0
 25 26  1  0  0  0  0
 26 27  1  0  0  0  0
 26 52  1  0  0  0  0
 27 28  1  0  0  0  0
 28 34  2  0  0  0  0
 28 29  1  0  0  0  0
 29 30  1  0  0  0  0
 30 47  1  0  0  0  0
 30 31  1  0  0  0  0
 31 32  2  0  0  0  0
 33 29  1  0  0  0  0
 33 50  1  0  0  0  0
 33 48  1  0  0  0  0
 34 35  1  0  0  0  0
 35 31  1  0  0  0  0
 35 36  2  0  0  0  0
 40 17  1  0  0  0  0
 42 21  1  0  0  0  0
 43 22  1  0  0  0  0
 49 33  1  0  0  0  0
 51 26  1  0  0  0  0
 54 24  1  0  0  0  0
M  END