N11
  Mrv1674 09121610113D          

 38 39  0  0  0  0            999 V2000
    0.0000    0.0000    0.0000 C   0  0  0  0  0  0  0  0  0  0  0  0
    1.4327    0.0000    0.0000 C   0  0  0  0  0  0  0  0  0  0  0  0
    1.9114    0.0000    1.3198 N   0  0  0  0  0  0  0  0  0  0  0  0
    2.1411    0.0009   -1.1917 N   0  0  0  0  0  0  0  0  0  0  0  0
    1.4149    0.0114   -2.4080 C   0  0  0  0  0  0  0  0  0  0  0  0
    2.0380    0.0305   -3.4927 O   0  0  0  0  0  0  0  0  0  0  0  0
    3.5803    0.0137   -1.1882 C   0  0  0  0  0  0  0  0  0  0  0  0
   -0.7804    0.0049   -1.2241 C   0  0  0  0  0  0  0  0  0  0  0  0
   -0.0047   -0.0132   -2.4033 N   0  0  0  0  0  0  0  0  0  0  0  0
   -0.6717    0.0027   -3.6958 C   0  0  2  0  0  0  0  0  0  0  0  0
   -0.7529    1.3845   -4.3444 C   0  0  2  0  0  0  0  0  0  0  0  0
   -1.4729    1.2788   -5.6711 C   0  0  1  0  0  0  0  0  0  0  0  0
   -1.5408    2.6258   -6.3559 C   0  0  1  0  0  0  0  0  0  0  0  0
   -2.2914    2.5773   -7.6563 C   0  0  0  0  0  0  0  0  0  0  0  0
   -2.1537    3.8011   -8.5056 C   0  0  0  0  0  0  0  0  0  0  0  0
   -2.9749    1.6097   -8.0047 O   0  0  0  0  0  0  0  0  0  0  0  0
   -2.0246    0.0141   -1.2701 O   0  0  0  0  0  0  0  0  0  0  0  0
   -0.3914   -0.0007    1.3430 N   0  0  0  0  0  0  0  0  0  0  0  0
    0.7875   -0.0014    2.0869 C   0  0  0  0  0  0  0  0  0  0  0  0
   -1.7278   -0.0076    1.8442 C   0  0  0  0  0  0  0  0  0  0  0  0
    3.9623   -0.0255   -2.2432 H   0  0  0  0  0  0  0  0  0  0  0  0
    3.9465    0.9511   -0.6902 H   0  0  0  0  0  0  0  0  0  0  0  0
    3.9595   -0.8755   -0.6169 H   0  0  0  0  0  0  0  0  0  0  0  0
   -2.3250    4.7174   -7.8911 H   0  0  0  0  0  0  0  0  0  0  0  0
   -1.1202    3.8429   -8.9290 H   0  0  0  0  0  0  0  0  0  0  0  0
   -2.8862    3.7836   -9.3487 H   0  0  0  0  0  0  0  0  0  0  0  0
   -2.0546    3.3689   -5.6882 H   0  0  0  0  0  0  0  0  0  0  0  0
   -0.5044    3.0105   -6.5500 H   0  0  0  0  0  0  0  0  0  0  0  0
   -0.9433    0.5486   -6.3385 H   0  0  0  0  0  0  0  0  0  0  0  0
   -2.5134    0.8869   -5.5175 H   0  0  0  0  0  0  0  0  0  0  0  0
    0.2828    1.7866   -4.5023 H   0  0  0  0  0  0  0  0  0  0  0  0
   -1.2990    2.0956   -3.6715 H   0  0  0  0  0  0  0  0  0  0  0  0
   -1.7146   -0.4012   -3.5476 H   0  0  0  0  0  0  0  0  0  0  0  0
   -0.1073   -0.6903   -4.3846 H   0  0  0  0  0  0  0  0  0  0  0  0
    0.7921   -0.0027    3.1840 H   0  0  0  0  0  0  0  0  0  0  0  0
   -2.4518    0.0078    0.9828 H   0  0  0  0  0  0  0  0  0  0  0  0
   -1.8984   -0.9332    2.4578 H   0  0  0  0  0  0  0  0  0  0  0  0
   -1.8954    0.8967    2.4892 H   0  0  0  0  0  0  0  0  0  0  0  0
  1 18  1  0  0  0  0
  2  1  2  0  0  0  0
  2  3  1  0  0  0  0
  3 19  2  0  0  0  0
  4  2  1  0  0  0  0
  4  7  1  0  0  0  0
  5  4  1  0  0  0  0
  5  9  1  0  0  0  0
  6  5  2  0  0  0  0
  7 22  1  0  0  0  0
  7 23  1  0  0  0  0
  8  1  1  0  0  0  0
  9  8  1  0  0  0  0
 10  9  1  0  0  0  0
 10 33  1  0  0  0  0
 11 10  1  0  0  0  0
 11 32  1  0  0  0  0
 12 11  1  0  0  0  0
 12 30  1  0  0  0  0
 13 12  1  0  0  0  0
 13 27  1  0  0  0  0
 14 13  1  0  0  0  0
 15 14  1  0  0  0  0
 15 24  1  0  0  0  0
 16 14  2  0  0  0  0
 17  8  2  0  0  0  0
 18 20  1  0  0  0  0
 18 19  1  0  0  0  0
 19 35  1  0  0  0  0
 20 37  1  0  0  0  0
 20 38  1  0  0  0  0
 21  7  1  0  0  0  0
 25 15  1  0  0  0  0
 26 15  1  0  0  0  0
 28 13  1  0  0  0  0
 29 12  1  0  0  0  0
 31 11  1  0  0  0  0
 34 10  1  0  0  0  0
 36 20  1  0  0  0  0
M  END