N13
  Mrv1674 09121610113D          

 52 55  0  0  0  0            999 V2000
    0.0000    0.0000    0.0000 O   0  0  0  0  0  0  0  0  0  0  0  0
    1.4231    0.0000    0.0000 C   0  0  1  0  0  0  0  0  0  0  0  0
    1.9754    0.0000    1.4595 C   0  0  2  0  0  0  0  0  0  0  0  0
    1.8095   -1.4881    1.8403 C   0  0  2  0  0  0  0  0  0  0  0  0
    2.4468   -1.7918    3.1811 C   0  0  1  0  0  0  0  0  0  0  0  0
    1.7305   -0.9527    4.2564 C   0  0  1  0  0  0  0  0  0  0  0  0
    2.2882   -1.2411    5.6692 C   0  0  1  0  0  0  0  0  0  0  0  0
    2.2438   -2.7327    5.9035 C   0  0  0  0  0  0  0  0  0  0  0  0
    1.6499   -3.2930    6.9703 C   0  0  0  0  0  0  0  0  0  0  0  0
    0.9486   -2.5102    7.9988 C   0  0  0  0  0  0  0  0  0  0  0  0
    0.4517   -3.0359    9.0042 O   0  0  0  0  0  0  0  0  0  0  0  0
    3.7327   -0.7592    5.8205 C   0  0  0  0  0  0  0  0  0  0  0  0
    1.4648   -0.4985    6.6840 C   0  0  0  0  0  0  0  0  0  0  0  0
    0.8705   -1.0650    7.7394 C   0  0  0  0  0  0  0  0  0  0  0  0
    2.3401   -3.2742    3.4961 C   0  0  2  0  0  0  0  0  0  0  0  0
    2.9037   -3.5778    4.8684 C   0  0  1  0  0  0  0  0  0  0  0  0
    1.1882    0.8148    2.4713 C   0  0  2  0  0  0  0  0  0  0  0  0
    1.7121    0.5119    3.8599 C   0  0  0  0  0  0  0  0  0  0  0  0
    2.0651    1.4348    4.5994 O   0  0  0  0  0  0  0  0  0  0  0  0
    3.4243    0.4594    1.4629 C   0  0  0  0  0  0  0  0  0  0  0  0
    1.8373   -1.3785   -0.5724 C   0  0  2  0  0  0  0  0  0  0  0  0
    2.2822   -2.2460    0.6077 C   0  0  2  0  0  0  0  0  0  0  0  0
    1.8989    1.2084   -0.7940 C   0  0  0  0  0  0  0  0  0  0  0  0
    1.2640    2.2687   -0.7229 O   0  0  0  0  0  0  0  0  0  0  0  0
    3.1057    1.1073   -1.6932 C   0  0  2  0  0  0  0  0  0  0  0  0
    3.6553    2.3708   -1.9931 O   0  0  0  0  0  0  0  0  0  0  0  0
    1.6501   -4.3849    7.1242 H   0  0  0  0  0  0  0  0  0  0  0  0
    4.3934   -1.2442    5.0640 H   0  0  0  0  0  0  0  0  0  0  0  0
    3.7803    0.3489    5.6851 H   0  0  0  0  0  0  0  0  0  0  0  0
    4.1115   -1.0137    6.8394 H   0  0  0  0  0  0  0  0  0  0  0  0
    0.2962   -0.4738    8.4708 H   0  0  0  0  0  0  0  0  0  0  0  0
    1.4079    0.5929    6.5230 H   0  0  0  0  0  0  0  0  0  0  0  0
    0.6452   -1.2715    4.2703 H   0  0  0  0  0  0  0  0  0  0  0  0
    4.0098   -3.3786    4.8808 H   0  0  0  0  0  0  0  0  0  0  0  0
    2.7598   -4.6674    5.0974 H   0  0  0  0  0  0  0  0  0  0  0  0
    2.9029   -3.8569    2.7203 H   0  0  0  0  0  0  0  0  0  0  0  0
    1.2667   -3.5961    3.4474 H   0  0  0  0  0  0  0  0  0  0  0  0
    3.5360   -1.5108    3.1566 H   0  0  0  0  0  0  0  0  0  0  0  0
    0.6996   -1.6847    1.9360 H   0  0  0  0  0  0  0  0  0  0  0  0
    0.0995    0.5455    2.4322 H   0  0  0  0  0  0  0  0  0  0  0  0
    1.2859    1.9110    2.2556 H   0  0  0  0  0  0  0  0  0  0  0  0
    4.0609   -0.2392    0.8685 H   0  0  0  0  0  0  0  0  0  0  0  0
    3.5082    1.4868    1.0288 H   0  0  0  0  0  0  0  0  0  0  0  0
    3.8222    0.5005    2.5070 H   0  0  0  0  0  0  0  0  0  0  0  0
    1.8203   -3.2621    0.5575 H   0  0  0  0  0  0  0  0  0  0  0  0
    3.3930   -2.3745    0.6148 H   0  0  0  0  0  0  0  0  0  0  0  0
    2.6610   -1.2762   -1.3172 H   0  0  0  0  0  0  0  0  0  0  0  0
    0.9534   -1.8354   -1.0863 H   0  0  0  0  0  0  0  0  0  0  0  0
    2.9238    2.9766   -2.1818 H   0  0  0  0  0  0  0  0  0  0  0  0
    2.8000    0.5853   -2.6427 H   0  0  0  0  0  0  0  0  0  0  0  0
    3.9387    0.5393   -1.1963 H   0  0  0  0  0  0  0  0  0  0  0  0
   -0.2911    0.8917    0.2418 H   0  0  0  0  0  0  0  0  0  0  0  0
  1 52  1  0  0  0  0
  2  1  1  1  0  0  0
  2  3  1  0  0  0  0
  3 20  1  1  0  0  0
  3  4  1  0  0  0  0
  3 17  1  0  0  0  0
  4 39  1  1  0  0  0
  4  5  1  0  0  0  0
  5 38  1  6  0  0  0
  5 15  1  0  0  0  0
  5  6  1  0  0  0  0
  6 33  1  1  0  0  0
  6  7  1  0  0  0  0
  7 12  1  1  0  0  0
  7  8  1  0  0  0  0
  7 13  1  0  0  0  0
  8  9  2  0  0  0  0
  9 27  1  0  0  0  0
  9 10  1  0  0  0  0
 10 11  2  0  0  0  0
 12 30  1  0  0  0  0
 13 14  2  0  0  0  0
 14 10  1  0  0  0  0
 14 31  1  0  0  0  0
 15 16  1  0  0  0  0
 16  8  1  0  0  0  0
 16 34  1  0  0  0  0
 16 35  1  0  0  0  0
 17 18  1  0  0  0  0
 18  6  1  0  0  0  0
 18 19  2  0  0  0  0
 20 44  1  0  0  0  0
 21  2  1  0  0  0  0
 21 22  1  0  0  0  0
 22  4  1  0  0  0  0
 22 46  1  0  0  0  0
 23  2  1  0  0  0  0
 23 24  2  0  0  0  0
 25 23  1  0  0  0  0
 25 51  1  0  0  0  0
 26 25  1  0  0  0  0
 28 12  1  0  0  0  0
 29 12  1  0  0  0  0
 32 13  1  0  0  0  0
 36 15  1  0  0  0  0
 37 15  1  0  0  0  0
 40 17  1  0  0  0  0
 41 17  1  0  0  0  0
 42 20  1  0  0  0  0
 43 20  1  0  0  0  0
 45 22  1  0  0  0  0
 47 21  1  0  0  0  0
 48 21  1  0  0  0  0
 49 26  1  0  0  0  0
 50 25  1  0  0  0  0
M  END