N15
  Mrv1674 09121610113D          

 38 40  0  0  0  0            999 V2000
    0.0000    0.0000    0.0000 C   0  0  0  0  0  0  0  0  0  0  0  0
    1.3964    0.0000    0.0000 C   0  0  0  0  0  0  0  0  0  0  0  0
    2.2605    0.0000    1.1312 C   0  0  0  0  0  0  0  0  0  0  0  0
    3.6009    0.0027    0.5683 N   0  0  0  0  0  0  0  0  0  0  0  0
    4.6908   -0.0138    1.4399 C   0  0  0  0  0  0  0  0  0  0  0  0
    6.0699   -0.0339    0.9315 C   0  0  0  0  0  0  0  0  0  0  0  0
    6.9706   -0.9621    1.4707 C   0  0  0  0  0  0  0  0  0  0  0  0
    8.2889   -0.9758    1.0251 C   0  0  0  0  0  0  0  0  0  0  0  0
    8.7188   -0.0851    0.0463 C   0  0  0  0  0  0  0  0  0  0  0  0
    6.4877    0.8732   -0.0444 C   0  0  0  0  0  0  0  0  0  0  0  0
    7.8215    0.8533   -0.5105 C   0  0  0  0  0  0  0  0  0  0  0  0
    8.2581    1.7811   -1.4821 N   0  0  0  0  0  0  0  0  0  0  0  0
    7.5922    1.9678   -2.6995 C   0  0  0  0  0  0  0  0  0  0  0  0
    6.3608    1.1646   -3.0223 C   0  0  0  0  0  0  0  0  0  0  0  0
    8.0350    2.8118   -3.5024 O   0  0  0  0  0  0  0  0  0  0  0  0
    9.5165    2.4691   -1.2557 C   0  0  2  0  0  0  0  0  0  0  0  0
   10.6963    1.9510   -2.0640 C   0  0  0  0  0  0  0  0  0  0  0  0
    2.0140   -0.0062    2.4836 N   0  0  0  0  0  0  0  0  0  0  0  0
    3.0746   -0.0156    3.2740 C   0  0  0  0  0  0  0  0  0  0  0  0
    4.4282   -0.0218    2.8019 C   0  0  0  0  0  0  0  0  0  0  0  0
    2.2711    0.0008   -1.1443 C   0  0  0  0  0  0  0  0  0  0  0  0
    3.5788    0.0024   -0.7761 N   0  0  0  0  0  0  0  0  0  0  0  0
   -1.1641   -0.0001   -0.0040 N   0  0  0  0  0  0  0  0  0  0  0  0
    8.9998   -1.7038    1.4458 H   0  0  0  0  0  0  0  0  0  0  0  0
    9.7670   -0.1159   -0.2920 H   0  0  0  0  0  0  0  0  0  0  0  0
    6.6352   -1.6770    2.2367 H   0  0  0  0  0  0  0  0  0  0  0  0
    5.7764    1.6114   -0.4487 H   0  0  0  0  0  0  0  0  0  0  0  0
    5.4577    1.7152   -2.6603 H   0  0  0  0  0  0  0  0  0  0  0  0
    6.2931    1.0601   -4.1335 H   0  0  0  0  0  0  0  0  0  0  0  0
    6.3757    0.1496   -2.5587 H   0  0  0  0  0  0  0  0  0  0  0  0
   10.9253    0.8856   -1.8246 H   0  0  0  0  0  0  0  0  0  0  0  0
   10.4866    2.0347   -3.1585 H   0  0  0  0  0  0  0  0  0  0  0  0
   11.5928    2.5716   -1.8231 H   0  0  0  0  0  0  0  0  0  0  0  0
    9.7602    2.4075   -0.1577 H   0  0  0  0  0  0  0  0  0  0  0  0
    9.3540    3.5544   -1.5243 H   0  0  0  0  0  0  0  0  0  0  0  0
    5.2590   -0.0273    3.5197 H   0  0  0  0  0  0  0  0  0  0  0  0
    2.8762   -0.0191    4.3628 H   0  0  0  0  0  0  0  0  0  0  0  0
    1.9755   -0.0003   -2.1971 H   0  0  0  0  0  0  0  0  0  0  0  0
  2  1  1  0  0  0  0
  2  3  2  0  0  0  0
  3 18  1  0  0  0  0
  4  3  1  0  0  0  0
  4  5  1  0  0  0  0
  5 20  2  0  0  0  0
  6  5  1  0  0  0  0
  6  7  1  0  0  0  0
  7 26  1  0  0  0  0
  8  7  2  0  0  0  0
  8 24  1  0  0  0  0
  9  8  1  0  0  0  0
 10  6  2  0  0  0  0
 11  9  2  0  0  0  0
 11 10  1  0  0  0  0
 12 11  1  0  0  0  0
 12 16  1  0  0  0  0
 13 12  1  0  0  0  0
 14 13  1  0  0  0  0
 14 28  1  0  0  0  0
 14 30  1  0  0  0  0
 15 13  2  0  0  0  0
 16 34  1  0  0  0  0
 17 16  1  0  0  0  0
 17 31  1  0  0  0  0
 17 33  1  0  0  0  0
 18 19  2  0  0  0  0
 19 37  1  0  0  0  0
 20 19  1  0  0  0  0
 20 36  1  0  0  0  0
 21  2  1  0  0  0  0
 21 22  2  0  0  0  0
 22  4  1  0  0  0  0
 23  1  3  0  0  0  0
 25  9  1  0  0  0  0
 27 10  1  0  0  0  0
 29 14  1  0  0  0  0
 32 17  1  0  0  0  0
 35 16  1  0  0  0  0
 38 21  1  0  0  0  0
M  END