N2
  Mrv1674 09121610113D          

 24 25  0  0  0  0            999 V2000
    0.0000    0.0000    0.0000 C   0  0  0  0  0  0  0  0  0  0  0  0
    1.4330    0.0000    0.0000 C   0  0  0  0  0  0  0  0  0  0  0  0
    1.9116    0.0000    1.3198 N   0  0  0  0  0  0  0  0  0  0  0  0
    2.1423   -0.0003   -1.1914 N   0  0  0  0  0  0  0  0  0  0  0  0
    1.4156    0.0015   -2.4066 C   0  0  0  0  0  0  0  0  0  0  0  0
    2.0295    0.0032   -3.4962 O   0  0  0  0  0  0  0  0  0  0  0  0
    3.5814    0.0026   -1.1891 C   0  0  0  0  0  0  0  0  0  0  0  0
   -0.7809    0.0006   -1.2237 C   0  0  0  0  0  0  0  0  0  0  0  0
   -0.0041    0.0002   -2.4008 N   0  0  0  0  0  0  0  0  0  0  0  0
   -0.6484    0.0029   -3.6939 C   0  0  0  0  0  0  0  0  0  0  0  0
   -2.0252    0.0012   -1.2719 O   0  0  0  0  0  0  0  0  0  0  0  0
   -0.3912   -0.0001    1.3430 N   0  0  0  0  0  0  0  0  0  0  0  0
    0.7877   -0.0001    2.0868 C   0  0  0  0  0  0  0  0  0  0  0  0
   -1.7276   -0.0005    1.8442 C   0  0  0  0  0  0  0  0  0  0  0  0
    3.9616   -0.0057   -2.2455 H   0  0  0  0  0  0  0  0  0  0  0  0
    3.9533    0.9218   -0.6622 H   0  0  0  0  0  0  0  0  0  0  0  0
    3.9563   -0.9063   -0.6466 H   0  0  0  0  0  0  0  0  0  0  0  0
   -0.3552    0.9289   -4.2569 H   0  0  0  0  0  0  0  0  0  0  0  0
   -0.3136   -0.8937   -4.2809 H   0  0  0  0  0  0  0  0  0  0  0  0
   -1.7617   -0.0240   -3.5584 H   0  0  0  0  0  0  0  0  0  0  0  0
    0.7923   -0.0001    3.1840 H   0  0  0  0  0  0  0  0  0  0  0  0
   -1.8964    0.9132    2.4755 H   0  0  0  0  0  0  0  0  0  0  0  0
   -2.4515    0.0017    0.9826 H   0  0  0  0  0  0  0  0  0  0  0  0
   -1.8973   -0.9169    2.4715 H   0  0  0  0  0  0  0  0  0  0  0  0
  1 12  1  0  0  0  0
  2  1  2  0  0  0  0
  2  3  1  0  0  0  0
  3 13  2  0  0  0  0
  4  2  1  0  0  0  0
  4  7  1  0  0  0  0
  5  4  1  0  0  0  0
  5  9  1  0  0  0  0
  6  5  2  0  0  0  0
  7 16  1  0  0  0  0
  7 17  1  0  0  0  0
  8  1  1  0  0  0  0
  9  8  1  0  0  0  0
 10  9  1  0  0  0  0
 10 20  1  0  0  0  0
 11  8  2  0  0  0  0
 12 14  1  0  0  0  0
 12 13  1  0  0  0  0
 13 21  1  0  0  0  0
 14 24  1  0  0  0  0
 14 22  1  0  0  0  0
 15  7  1  0  0  0  0
 18 10  1  0  0  0  0
 19 10  1  0  0  0  0
 23 14  1  0  0  0  0
M  END