N3
  Mrv1674 09121610113D          

 30 32  0  0  0  0            999 V2000
    0.0000    0.0000    0.0000 C   0  0  0  0  0  0  0  0  0  0  0  0
    1.3412    0.0000    0.0000 C   0  0  0  0  0  0  0  0  0  0  0  0
    2.2160    0.0000    1.1592 C   0  0  0  0  0  0  0  0  0  0  0  0
    1.9000   -0.6852    2.3582 C   0  0  0  0  0  0  0  0  0  0  0  0
    0.6754   -1.4019    2.4617 N   0  0  0  0  0  0  0  0  0  0  0  0
   -0.5302   -0.6561    2.3695 C   0  0  0  0  0  0  0  0  0  0  0  0
   -0.8659    0.0106    1.1655 C   0  0  0  0  0  0  0  0  0  0  0  0
   -2.0798    0.7114    1.0908 C   0  0  0  0  0  0  0  0  0  0  0  0
   -2.9420    0.7735    2.1790 C   0  0  0  0  0  0  0  0  0  0  0  0
   -2.6027    0.1314    3.3701 C   0  0  0  0  0  0  0  0  0  0  0  0
   -1.4088   -0.5732    3.4718 C   0  0  0  0  0  0  0  0  0  0  0  0
    2.8149   -0.6610    3.4318 C   0  0  0  0  0  0  0  0  0  0  0  0
    4.0120    0.0368    3.3188 C   0  0  0  0  0  0  0  0  0  0  0  0
    4.3206    0.7214    2.1434 C   0  0  0  0  0  0  0  0  0  0  0  0
    3.4322    0.6957    1.0751 C   0  0  0  0  0  0  0  0  0  0  0  0
    0.6787   -2.7375    2.9358 C   0  0  0  0  0  0  0  0  0  0  0  0
   -0.5284   -3.4325    3.0511 N   0  0  0  0  0  0  0  0  0  0  0  0
    1.7482   -3.3022    3.2653 O   0  0  0  0  0  0  0  0  0  0  0  0
   -0.4306   -4.4166    3.1422 H   0  0  0  0  0  0  0  0  0  0  0  0
   -1.3307   -3.1024    2.5724 H   0  0  0  0  0  0  0  0  0  0  0  0
   -1.1524   -1.0707    4.4211 H   0  0  0  0  0  0  0  0  0  0  0  0
   -3.2789    0.1841    4.2366 H   0  0  0  0  0  0  0  0  0  0  0  0
   -3.8872    1.3306    2.1024 H   0  0  0  0  0  0  0  0  0  0  0  0
   -2.3435    1.2230    0.1521 H   0  0  0  0  0  0  0  0  0  0  0  0
   -0.5354    0.0299   -0.9671 H   0  0  0  0  0  0  0  0  0  0  0  0
    1.8733    0.0295   -0.9698 H   0  0  0  0  0  0  0  0  0  0  0  0
    3.6797    1.2272    0.1434 H   0  0  0  0  0  0  0  0  0  0  0  0
    5.2673    1.2746    2.0592 H   0  0  0  0  0  0  0  0  0  0  0  0
    4.7191    0.0419    4.1618 H   0  0  0  0  0  0  0  0  0  0  0  0
    2.5957   -1.2285    4.3509 H   0  0  0  0  0  0  0  0  0  0  0  0
  1  2  2  0  0  0  0
  1  7  1  0  0  0  0
  2  3  1  0  0  0  0
  3  4  1  0  0  0  0
  4  5  1  0  0  0  0
  4 12  2  0  0  0  0
  5 16  1  0  0  0  0
  6  5  1  0  0  0  0
  6 11  1  0  0  0  0
  7  6  2  0  0  0  0
  8  7  1  0  0  0  0
  8  9  2  0  0  0  0
  9 10  1  0  0  0  0
 10 11  2  0  0  0  0
 10 22  1  0  0  0  0
 11 21  1  0  0  0  0
 12 30  1  0  0  0  0
 13 12  1  0  0  0  0
 13 29  1  0  0  0  0
 14 13  2  0  0  0  0
 15  3  2  0  0  0  0
 15 14  1  0  0  0  0
 16 17  1  0  0  0  0
 16 18  2  0  0  0  0
 17 19  1  0  0  0  0
 20 17  1  0  0  0  0
 23  9  1  0  0  0  0
 24  8  1  0  0  0  0
 25  1  1  0  0  0  0
 26  2  1  0  0  0  0
 27 15  1  0  0  0  0
 28 14  1  0  0  0  0
M  END