N5
  Mrv1674 09121610113D          

 57 60  0  0  0  0            999 V2000
    0.0000    0.0000    0.0000 F   0  0  0  0  0  0  0  0  0  0  0  0
    1.3987    0.0000    0.0000 C   0  0  1  0  0  0  0  0  0  0  0  0
    1.9150    0.0000    1.4719 C   0  0  2  0  0  0  0  0  0  0  0  0
    1.4085   -1.2563    2.1482 C   0  0  1  0  0  0  0  0  0  0  0  0
    1.9884   -2.5264    1.4913 C   0  0  2  0  0  0  0  0  0  0  0  0
    1.4278   -3.6257    2.4554 C   0  0  1  0  0  0  0  0  0  0  0  0
    0.0460   -3.8559    2.2148 O   0  0  0  0  0  0  0  0  0  0  0  0
    2.1597   -4.9502    2.2775 C   0  0  0  0  0  0  0  0  0  0  0  0
    1.8283   -5.7025    1.3507 O   0  0  0  0  0  0  0  0  0  0  0  0
    3.2388   -5.3733    3.2416 C   0  0  2  0  0  0  0  0  0  0  0  0
    3.9820   -6.4754    2.7698 O   0  0  0  0  0  0  0  0  0  0  0  0
    3.5057   -2.5879    1.5258 C   0  0  0  0  0  0  0  0  0  0  0  0
    1.6541   -1.4535    3.6364 C   0  0  1  0  0  0  0  0  0  0  0  0
    1.5460   -2.9729    3.8657 C   0  0  1  0  0  0  0  0  0  0  0  0
    0.3908   -3.3275    4.7687 C   0  0  0  0  0  0  0  0  0  0  0  0
    1.4411    1.2407    2.2075 C   0  0  2  0  0  0  0  0  0  0  0  0
    1.8913    2.5015    1.4984 C   0  0  2  0  0  0  0  0  0  0  0  0
    1.8221   -1.3195   -0.7366 C   0  0  1  0  0  0  0  0  0  0  0  0
    3.1984   -1.2453   -1.0640 O   0  0  0  0  0  0  0  0  0  0  0  0
    1.4756   -2.5801    0.0637 C   0  0  2  0  0  0  0  0  0  0  0  0
    1.8861    1.3026   -0.7394 C   0  0  1  0  0  0  0  0  0  0  0  0
    1.4474    2.4961    0.0757 C   0  0  0  0  0  0  0  0  0  0  0  0
    0.7231    3.5056   -0.4345 C   0  0  0  0  0  0  0  0  0  0  0  0
    0.2544    3.5269   -1.8282 C   0  0  0  0  0  0  0  0  0  0  0  0
   -0.3774    4.4827   -2.2984 O   0  0  0  0  0  0  0  0  0  0  0  0
    3.4078    1.3746   -0.8934 C   0  0  0  0  0  0  0  0  0  0  0  0
    1.3058    1.3249   -2.1237 C   0  0  0  0  0  0  0  0  0  0  0  0
    0.5830    2.3324   -2.6236 C   0  0  0  0  0  0  0  0  0  0  0  0
   -0.0239   -4.3336    1.3748 H   0  0  0  0  0  0  0  0  0  0  0  0
    3.3666   -7.0928    2.3486 H   0  0  0  0  0  0  0  0  0  0  0  0
    2.7572   -5.6282    4.2268 H   0  0  0  0  0  0  0  0  0  0  0  0
    3.9964   -4.5551    3.3861 H   0  0  0  0  0  0  0  0  0  0  0  0
    3.8770   -2.5214    2.5775 H   0  0  0  0  0  0  0  0  0  0  0  0
    3.8602   -3.5492    1.0777 H   0  0  0  0  0  0  0  0  0  0  0  0
    3.9599   -1.7469    0.9475 H   0  0  0  0  0  0  0  0  0  0  0  0
    0.3158   -4.4358    4.8823 H   0  0  0  0  0  0  0  0  0  0  0  0
    0.5387   -2.8685    5.7758 H   0  0  0  0  0  0  0  0  0  0  0  0
   -0.5720   -2.9557    4.3402 H   0  0  0  0  0  0  0  0  0  0  0  0
    2.4989   -3.3262    4.3432 H   0  0  0  0  0  0  0  0  0  0  0  0
    2.6679   -1.0845    3.9305 H   0  0  0  0  0  0  0  0  0  0  0  0
    0.8969   -0.8980    4.2426 H   0  0  0  0  0  0  0  0  0  0  0  0
    0.2858   -1.2903    1.9987 H   0  0  0  0  0  0  0  0  0  0  0  0
    3.0130    2.5750    1.5259 H   0  0  0  0  0  0  0  0  0  0  0  0
    1.4817    3.3973    2.0364 H   0  0  0  0  0  0  0  0  0  0  0  0
    1.8493    1.2295    3.2518 H   0  0  0  0  0  0  0  0  0  0  0  0
    0.3209    1.2260    2.2771 H   0  0  0  0  0  0  0  0  0  0  0  0
    3.0376   -0.0065    1.4447 H   0  0  0  0  0  0  0  0  0  0  0  0
    3.4827   -2.1398   -1.2935 H   0  0  0  0  0  0  0  0  0  0  0  0
    0.3555   -2.6692    0.0740 H   0  0  0  0  0  0  0  0  0  0  0  0
    1.8914   -3.4813   -0.4580 H   0  0  0  0  0  0  0  0  0  0  0  0
    1.2337   -1.3632   -1.7017 H   0  0  0  0  0  0  0  0  0  0  0  0
    0.4320    4.3751    0.1775 H   0  0  0  0  0  0  0  0  0  0  0  0
    3.9252    0.9963    0.0181 H   0  0  0  0  0  0  0  0  0  0  0  0
    3.7439    0.7607   -1.7649 H   0  0  0  0  0  0  0  0  0  0  0  0
    3.7159    2.4339   -1.0692 H   0  0  0  0  0  0  0  0  0  0  0  0
    0.1954    2.3185   -3.6548 H   0  0  0  0  0  0  0  0  0  0  0  0
    1.5517    0.4417   -2.7369 H   0  0  0  0  0  0  0  0  0  0  0  0
  2  1  1  1  0  0  0
  2  3  1  0  0  0  0
  3 47  1  6  0  0  0
  3  4  1  0  0  0  0
  3 16  1  0  0  0  0
  4 42  1  6  0  0  0
  4 13  1  0  0  0  0
  5  4  1  0  0  0  0
  5 12  1  1  0  0  0
  5  6  1  0  0  0  0
  6  7  1  6  0  0  0
  6 14  1  0  0  0  0
  8  6  1  0  0  0  0
  8 10  1  0  0  0  0
  9  8  2  0  0  0  0
 10 32  1  0  0  0  0
 10 31  1  0  0  0  0
 11 10  1  0  0  0  0
 12 33  1  0  0  0  0
 13 14  1  0  0  0  0
 13 40  1  0  0  0  0
 13 41  1  0  0  0  0
 14 39  1  1  0  0  0
 14 15  1  0  0  0  0
 15 36  1  0  0  0  0
 15 37  1  0  0  0  0
 16 46  1  0  0  0  0
 16 45  1  0  0  0  0
 17 16  1  0  0  0  0
 17 43  1  0  0  0  0
 17 44  1  0  0  0  0
 18  2  1  0  0  0  0
 18 51  1  6  0  0  0
 18 20  1  0  0  0  0
 19 18  1  0  0  0  0
 20  5  1  0  0  0  0
 20 49  1  0  0  0  0
 21  2  1  0  0  0  0
 21 26  1  6  0  0  0
 21 22  1  0  0  0  0
 22 17  1  0  0  0  0
 23 22  2  0  0  0  0
 23 52  1  0  0  0  0
 24 23  1  0  0  0  0
 25 24  2  0  0  0  0
 26 53  1  0  0  0  0
 27 21  1  0  0  0  0
 28 24  1  0  0  0  0
 28 27  2  0  0  0  0
 29  7  1  0  0  0  0
 30 11  1  0  0  0  0
 34 12  1  0  0  0  0
 35 12  1  0  0  0  0
 38 15  1  0  0  0  0
 48 19  1  0  0  0  0
 50 20  1  0  0  0  0
 54 26  1  0  0  0  0
 55 26  1  0  0  0  0
 56 28  1  0  0  0  0
 57 27  1  0  0  0  0
M  END