N6
  Mrv1674 09121610113D          

 30 30  0  0  0  0            999 V2000
    0.0000    0.0000    0.0000 C   0  0  0  0  0  0  0  0  0  0  0  0
    1.3901    0.0000    0.0000 C   0  0  0  0  0  0  0  0  0  0  0  0
    2.0979    0.0000    1.2154 C   0  0  0  0  0  0  0  0  0  0  0  0
    3.5836   -0.0005    1.2665 N   0  3  0  0  0  0  0  0  0  0  0  0
    4.1144   -0.0002    2.3464 O   0  0  0  0  0  0  0  0  0  0  0  0
    4.2127   -0.0013    0.2458 O   0  5  0  0  0  0  0  0  0  0  0  0
    2.1172   -0.0002   -1.3532 C   0  0  1  0  0  0  0  0  0  0  0  0
    1.2792    0.0006   -2.4432 F   0  0  0  0  0  0  0  0  0  0  0  0
    2.9180    1.0939   -1.5530 F   0  0  0  0  0  0  0  0  0  0  0  0
    2.9167   -1.0951   -1.5533 F   0  0  0  0  0  0  0  0  0  0  0  0
   -0.7262    0.0003    1.2160 C   0  0  0  0  0  0  0  0  0  0  0  0
    0.0041    0.0006    2.4319 C   0  0  0  0  0  0  0  0  0  0  0  0
    1.3896    0.0006    2.4287 C   0  0  0  0  0  0  0  0  0  0  0  0
   -2.1189    0.0059    1.2762 N   0  0  0  0  0  0  0  0  0  0  0  0
   -3.0265   -0.0298    0.2120 C   0  0  0  0  0  0  0  0  0  0  0  0
   -4.5038   -0.0161    0.6081 C   0  0  1  0  0  0  0  0  0  0  0  0
   -5.3514    0.2886   -0.6095 C   0  0  0  0  0  0  0  0  0  0  0  0
   -4.8876   -1.3495    1.2145 C   0  0  0  0  0  0  0  0  0  0  0  0
   -2.6580   -0.0683   -0.9708 O   0  0  0  0  0  0  0  0  0  0  0  0
   -0.5334   -0.0006   -0.9708 H   0  0  0  0  0  0  0  0  0  0  0  0
    1.9411    0.0007    3.3871 H   0  0  0  0  0  0  0  0  0  0  0  0
   -0.5204    0.0011    3.4010 H   0  0  0  0  0  0  0  0  0  0  0  0
   -6.4294    0.3165   -0.3216 H   0  0  0  0  0  0  0  0  0  0  0  0
   -5.0640    1.2757   -1.0448 H   0  0  0  0  0  0  0  0  0  0  0  0
   -5.2032   -0.4936   -1.3931 H   0  0  0  0  0  0  0  0  0  0  0  0
   -4.6721   -2.1821    0.5017 H   0  0  0  0  0  0  0  0  0  0  0  0
   -4.3295   -1.5373    2.1628 H   0  0  0  0  0  0  0  0  0  0  0  0
   -5.9814   -1.3563    1.4428 H   0  0  0  0  0  0  0  0  0  0  0  0
   -4.6671    0.7990    1.3696 H   0  0  0  0  0  0  0  0  0  0  0  0
   -2.5091    0.0087    2.1942 H   0  0  0  0  0  0  0  0  0  0  0  0
  1  2  2  0  0  0  0
  1 11  1  0  0  0  0
  2  3  1  0  0  0  0
  3  4  1  0  0  0  0
  3 13  2  0  0  0  0
  4  5  2  0  0  0  0
  6  4  1  0  0  0  0
  7  2  1  0  0  0  0
  8  7  1  0  0  0  0
  9  7  1  0  0  0  0
 10  7  1  0  0  0  0
 11 14  1  0  0  0  0
 11 12  2  0  0  0  0
 12 22  1  0  0  0  0
 13 12  1  0  0  0  0
 13 21  1  0  0  0  0
 14 30  1  0  0  0  0
 15 14  1  0  0  0  0
 15 16  1  0  0  0  0
 16 18  1  0  0  0  0
 16 29  1  0  0  0  0
 17 16  1  0  0  0  0
 17 23  1  0  0  0  0
 18 28  1  0  0  0  0
 18 27  1  0  0  0  0
 19 15  2  0  0  0  0
 20  1  1  0  0  0  0
 24 17  1  0  0  0  0
 25 17  1  0  0  0  0
 26 18  1  0  0  0  0
M  CHG  2   4   1   6  -1
M  END