N7
  Mrv1674 09121610113D          

 57 60  0  0  0  0            999 V2000
    0.0000    0.0000    0.0000 O   0  0  0  0  0  0  0  0  0  0  0  0
    1.4237    0.0000    0.0000 C   0  0  1  0  0  0  0  0  0  0  0  0
    1.9847    0.0000    1.4588 C   0  0  2  0  0  0  0  0  0  0  0  0
    1.7867   -1.4824    1.8461 C   0  0  2  0  0  0  0  0  0  0  0  0
    2.4019   -1.7867    3.1962 C   0  0  1  0  0  0  0  0  0  0  0  0
    1.6821   -0.9293    4.2470 C   0  0  1  0  0  0  0  0  0  0  0  0
    2.2198   -1.1858    5.6730 C   0  0  2  0  0  0  0  0  0  0  0  0
    2.2106   -2.6722    5.9609 C   0  0  0  0  0  0  0  0  0  0  0  0
    1.7281   -3.1816    7.1072 C   0  0  0  0  0  0  0  0  0  0  0  0
    1.3017   -0.4364    6.6518 C   0  0  2  0  0  0  0  0  0  0  0  0
    1.4493   -0.8878    8.0855 C   0  0  2  0  0  0  0  0  0  0  0  0
    1.2051   -2.3635    8.2089 C   0  0  0  0  0  0  0  0  0  0  0  0
    0.6327   -2.8584    9.1873 O   0  0  0  0  0  0  0  0  0  0  0  0
    3.6471   -0.6736    5.8463 C   0  0  0  0  0  0  0  0  0  0  0  0
    2.2527   -3.2562    3.5435 C   0  0  2  0  0  0  0  0  0  0  0  0
    2.8451   -3.5410    4.9165 C   0  0  2  0  0  0  0  0  0  0  0  0
    2.7615   -5.0251    5.2067 C   0  0  0  0  0  0  0  0  0  0  0  0
    1.2226    0.8393    2.4701 C   0  0  2  0  0  0  0  0  0  0  0  0
    1.7043    0.5520    3.8836 C   0  0  2  0  0  0  0  0  0  0  0  0
    3.4446    0.4189    1.4175 C   0  0  0  0  0  0  0  0  0  0  0  0
    1.8363   -1.3804   -0.5675 C   0  0  2  0  0  0  0  0  0  0  0  0
    2.2490   -2.2560    0.6195 C   0  0  2  0  0  0  0  0  0  0  0  0
    1.8913    1.2187   -0.7917 C   0  0  0  0  0  0  0  0  0  0  0  0
    1.2906    2.2896   -0.6323 O   0  0  0  0  0  0  0  0  0  0  0  0
    3.0233    1.0982   -1.7557 C   0  0  0  0  0  0  0  0  0  0  0  0
    1.7055   -4.2674    7.3013 H   0  0  0  0  0  0  0  0  0  0  0  0
    0.7330   -0.3242    8.7396 H   0  0  0  0  0  0  0  0  0  0  0  0
    2.4874   -0.6756    8.4586 H   0  0  0  0  0  0  0  0  0  0  0  0
    0.2339   -0.5777    6.3353 H   0  0  0  0  0  0  0  0  0  0  0  0
    1.5268    0.6615    6.5964 H   0  0  0  0  0  0  0  0  0  0  0  0
    4.3081   -1.0486    5.0293 H   0  0  0  0  0  0  0  0  0  0  0  0
    3.6668    0.4427    5.8339 H   0  0  0  0  0  0  0  0  0  0  0  0
    4.0615   -1.0199    6.8242 H   0  0  0  0  0  0  0  0  0  0  0  0
    0.6006   -1.2577    4.2466 H   0  0  0  0  0  0  0  0  0  0  0  0
    1.6984   -5.3569    5.2864 H   0  0  0  0  0  0  0  0  0  0  0  0
    3.2472   -5.5979    4.3792 H   0  0  0  0  0  0  0  0  0  0  0  0
    3.2889   -5.2725    6.1593 H   0  0  0  0  0  0  0  0  0  0  0  0
    3.9401   -3.2551    4.8933 H   0  0  0  0  0  0  0  0  0  0  0  0
    2.7806   -3.8770    2.7728 H   0  0  0  0  0  0  0  0  0  0  0  0
    1.1706   -3.5486    3.5292 H   0  0  0  0  0  0  0  0  0  0  0  0
    3.4966   -1.5312    3.1780 H   0  0  0  0  0  0  0  0  0  0  0  0
    0.6716   -1.6529    1.9342 H   0  0  0  0  0  0  0  0  0  0  0  0
    2.7418    0.9575    4.0114 H   0  0  0  0  0  0  0  0  0  0  0  0
    1.0391    1.1116    4.5941 H   0  0  0  0  0  0  0  0  0  0  0  0
    0.1269    0.6064    2.3987 H   0  0  0  0  0  0  0  0  0  0  0  0
    1.3562    1.9283    2.2400 H   0  0  0  0  0  0  0  0  0  0  0  0
    4.0232   -0.2459    0.7308 H   0  0  0  0  0  0  0  0  0  0  0  0
    3.5298    1.4742    1.0578 H   0  0  0  0  0  0  0  0  0  0  0  0
    3.9117    0.3618    2.4296 H   0  0  0  0  0  0  0  0  0  0  0  0
    1.7617   -3.2599    0.5683 H   0  0  0  0  0  0  0  0  0  0  0  0
    3.3559   -2.4131    0.6356 H   0  0  0  0  0  0  0  0  0  0  0  0
    2.6794   -1.2818   -1.2907 H   0  0  0  0  0  0  0  0  0  0  0  0
    0.9615   -1.8283   -1.1032 H   0  0  0  0  0  0  0  0  0  0  0  0
    3.8997    0.5991   -1.2759 H   0  0  0  0  0  0  0  0  0  0  0  0
    2.6960    0.4924   -2.6372 H   0  0  0  0  0  0  0  0  0  0  0  0
    3.3347    2.1099   -2.1160 H   0  0  0  0  0  0  0  0  0  0  0  0
   -0.2877    0.8835    0.2729 H   0  0  0  0  0  0  0  0  0  0  0  0
  1 57  1  0  0  0  0
  2  1  1  1  0  0  0
  2  3  1  0  0  0  0
  3 20  1  1  0  0  0
  3  4  1  0  0  0  0
  3 18  1  0  0  0  0
  4 42  1  1  0  0  0
  4  5  1  0  0  0  0
  5 41  1  6  0  0  0
  5 15  1  0  0  0  0
  5  6  1  0  0  0  0
  6 34  1  6  0  0  0
  6  7  1  0  0  0  0
  7 14  1  1  0  0  0
  7  8  1  0  0  0  0
  7 10  1  0  0  0  0
  8  9  2  0  0  0  0
  9 26  1  0  0  0  0
  9 12  1  0  0  0  0
 10 11  1  0  0  0  0
 11 12  1  0  0  0  0
 11 28  1  0  0  0  0
 11 27  1  0  0  0  0
 12 13  2  0  0  0  0
 14 33  1  0  0  0  0
 15 16  1  0  0  0  0
 16  8  1  0  0  0  0
 16 38  1  6  0  0  0
 16 17  1  0  0  0  0
 17 35  1  0  0  0  0
 17 37  1  0  0  0  0
 18 19  1  0  0  0  0
 19  6  1  0  0  0  0
 19 43  1  0  0  0  0
 19 44  1  0  0  0  0
 20 49  1  0  0  0  0
 21  2  1  0  0  0  0
 21 22  1  0  0  0  0
 22  4  1  0  0  0  0
 22 51  1  0  0  0  0
 23  2  1  0  0  0  0
 23 24  2  0  0  0  0
 25 23  1  0  0  0  0
 25 54  1  0  0  0  0
 29 10  1  0  0  0  0
 30 10  1  0  0  0  0
 31 14  1  0  0  0  0
 32 14  1  0  0  0  0
 36 17  1  0  0  0  0
 39 15  1  0  0  0  0
 40 15  1  0  0  0  0
 45 18  1  0  0  0  0
 46 18  1  0  0  0  0
 47 20  1  0  0  0  0
 48 20  1  0  0  0  0
 50 22  1  0  0  0  0
 52 21  1  0  0  0  0
 53 21  1  0  0  0  0
 55 25  1  0  0  0  0
 56 25  1  0  0  0  0
M  END