N8
  Mrv1674 09121610113D          

 57 60  0  0  0  0            999 V2000
    0.0000    0.0000    0.0000 O   0  0  0  0  0  0  0  0  0  0  0  0
    1.4231    0.0000    0.0000 C   0  0  1  0  0  0  0  0  0  0  0  0
    1.9903    0.0000    1.4581 C   0  0  2  0  0  0  0  0  0  0  0  0
    1.8012   -1.4829    1.8421 C   0  0  2  0  0  0  0  0  0  0  0  0
    2.4237   -1.7902    3.1895 C   0  0  1  0  0  0  0  0  0  0  0  0
    1.6901   -0.9524    4.2475 C   0  0  1  0  0  0  0  0  0  0  0  0
    2.2022   -1.2652    5.6742 C   0  0  1  0  0  0  0  0  0  0  0  0
    2.0448   -2.7555    5.8904 C   0  0  0  0  0  0  0  0  0  0  0  0
    1.2957   -3.2716    6.8783 C   0  0  0  0  0  0  0  0  0  0  0  0
    0.5435   -2.4443    7.8329 C   0  0  0  0  0  0  0  0  0  0  0  0
   -0.1416   -2.9404    8.7383 O   0  0  0  0  0  0  0  0  0  0  0  0
    3.6711   -0.8912    5.8890 C   0  0  0  0  0  0  0  0  0  0  0  0
    1.4017   -0.4654    6.6613 C   0  0  0  0  0  0  0  0  0  0  0  0
    0.6571   -0.9907    7.6392 C   0  0  0  0  0  0  0  0  0  0  0  0
    2.2971   -3.2737    3.4955 C   0  0  2  0  0  0  0  0  0  0  0  0
    2.7859   -3.6014    4.9012 C   0  0  2  0  0  0  0  0  0  0  0  0
    2.6722   -5.0901    5.1513 C   0  0  0  0  0  0  0  0  0  0  0  0
    1.2211    0.8345    2.4648 C   0  0  2  0  0  0  0  0  0  0  0  0
    1.6468    0.5482    3.9111 C   0  0  2  0  0  0  0  0  0  0  0  0
    2.9002    1.1396    4.2255 O   0  0  0  0  0  0  0  0  0  0  0  0
    3.4481    0.4241    1.4104 C   0  0  0  0  0  0  0  0  0  0  0  0
    1.8360   -1.3791   -0.5716 C   0  0  2  0  0  0  0  0  0  0  0  0
    2.2644   -2.2512    0.6121 C   0  0  2  0  0  0  0  0  0  0  0  0
    1.8929    1.2135   -0.7894 C   0  0  0  0  0  0  0  0  0  0  0  0
    1.2891    2.2880   -0.6661 O   0  0  0  0  0  0  0  0  0  0  0  0
    3.0509    1.1052   -1.7495 C   0  0  2  0  0  0  0  0  0  0  0  0
    3.5699    2.3665   -2.1090 O   0  0  0  0  0  0  0  0  0  0  0  0
    1.1936   -4.3590    7.0305 H   0  0  0  0  0  0  0  0  0  0  0  0
    3.7748    0.2124    6.0325 H   0  0  0  0  0  0  0  0  0  0  0  0
    4.0652   -1.4087    6.7964 H   0  0  0  0  0  0  0  0  0  0  0  0
    4.2901   -1.1818    5.0086 H   0  0  0  0  0  0  0  0  0  0  0  0
    0.0989   -0.3633    8.3522 H   0  0  0  0  0  0  0  0  0  0  0  0
    1.4997    0.6280    6.5466 H   0  0  0  0  0  0  0  0  0  0  0  0
    0.6068   -1.2791    4.2288 H   0  0  0  0  0  0  0  0  0  0  0  0
    3.2790   -5.6459    4.3955 H   0  0  0  0  0  0  0  0  0  0  0  0
    3.0535   -5.3477    6.1687 H   0  0  0  0  0  0  0  0  0  0  0  0
    1.6118   -5.4304    5.0686 H   0  0  0  0  0  0  0  0  0  0  0  0
    3.8790   -3.3222    4.9744 H   0  0  0  0  0  0  0  0  0  0  0  0
    2.8992   -3.8551    2.7488 H   0  0  0  0  0  0  0  0  0  0  0  0
    1.2275   -3.5942    3.3889 H   0  0  0  0  0  0  0  0  0  0  0  0
    3.5127   -1.5126    3.1771 H   0  0  0  0  0  0  0  0  0  0  0  0
    0.6873   -1.6614    1.9323 H   0  0  0  0  0  0  0  0  0  0  0  0
    2.8995    2.0263    3.8440 H   0  0  0  0  0  0  0  0  0  0  0  0
    0.8674    1.0287    4.5784 H   0  0  0  0  0  0  0  0  0  0  0  0
    0.1254    0.6053    2.3790 H   0  0  0  0  0  0  0  0  0  0  0  0
    1.3621    1.9245    2.2418 H   0  0  0  0  0  0  0  0  0  0  0  0
    3.5306    1.4801    1.0519 H   0  0  0  0  0  0  0  0  0  0  0  0
    3.9165    0.3653    2.4234 H   0  0  0  0  0  0  0  0  0  0  0  0
    4.0256   -0.2380    0.7204 H   0  0  0  0  0  0  0  0  0  0  0  0
    1.7862   -3.2598    0.5636 H   0  0  0  0  0  0  0  0  0  0  0  0
    3.3729   -2.3976    0.6220 H   0  0  0  0  0  0  0  0  0  0  0  0
    2.6694   -1.2783   -1.3057 H   0  0  0  0  0  0  0  0  0  0  0  0
    0.9563   -1.8309   -1.0966 H   0  0  0  0  0  0  0  0  0  0  0  0
    2.8233    2.9666   -2.2505 H   0  0  0  0  0  0  0  0  0  0  0  0
    2.7021    0.5579   -2.6694 H   0  0  0  0  0  0  0  0  0  0  0  0
    3.9153    0.5579   -1.2840 H   0  0  0  0  0  0  0  0  0  0  0  0
   -0.2904    0.8851    0.2644 H   0  0  0  0  0  0  0  0  0  0  0  0
  1 57  1  0  0  0  0
  2  1  1  1  0  0  0
  2  3  1  0  0  0  0
  3 21  1  1  0  0  0
  3  4  1  0  0  0  0
  3 18  1  0  0  0  0
  4 42  1  1  0  0  0
  4  5  1  0  0  0  0
  5 41  1  6  0  0  0
  5 15  1  0  0  0  0
  5  6  1  0  0  0  0
  6 34  1  6  0  0  0
  6  7  1  0  0  0  0
  7 12  1  1  0  0  0
  7  8  1  0  0  0  0
  7 13  1  0  0  0  0
  8  9  2  0  0  0  0
  9 28  1  0  0  0  0
  9 10  1  0  0  0  0
 10 11  2  0  0  0  0
 12 29  1  0  0  0  0
 12 30  1  0  0  0  0
 13 14  2  0  0  0  0
 14 10  1  0  0  0  0
 14 32  1  0  0  0  0
 15 16  1  0  0  0  0
 16  8  1  0  0  0  0
 16 38  1  1  0  0  0
 16 17  1  0  0  0  0
 17 36  1  0  0  0  0
 18 19  1  0  0  0  0
 19  6  1  0  0  0  0
 19 20  1  0  0  0  0
 19 44  1  1  0  0  0
 21 48  1  0  0  0  0
 22  2  1  0  0  0  0
 22 23  1  0  0  0  0
 23  4  1  0  0  0  0
 23 51  1  0  0  0  0
 24  2  1  0  0  0  0
 24 25  2  0  0  0  0
 26 24  1  0  0  0  0
 26 56  1  0  0  0  0
 27 26  1  0  0  0  0
 31 12  1  0  0  0  0
 33 13  1  0  0  0  0
 35 17  1  0  0  0  0
 37 17  1  0  0  0  0
 39 15  1  0  0  0  0
 40 15  1  0  0  0  0
 43 20  1  0  0  0  0
 45 18  1  0  0  0  0
 46 18  1  0  0  0  0
 47 21  1  0  0  0  0
 49 21  1  0  0  0  0
 50 23  1  0  0  0  0
 52 22  1  0  0  0  0
 53 22  1  0  0  0  0
 54 27  1  0  0  0  0
 55 26  1  0  0  0  0
M  END