p, p' - DDT
  SciTegic01221516373D

 19 20  0  0  0  0            999 V2000
   -0.8354    2.1467    3.9042 Cl  0  0  0  0  0  0  0  0  0  1  0  0
    0.4389    1.8921    2.6961 C   0  0  0  0  0  0  0  0  0  2  0  0
    1.5672    3.2470    2.8769 Cl  0  0  0  0  0  0  0  0  0  3  0  0
   -0.1925    1.8238    1.2330 C   0  0  0  0  0  0  0  0  0  4  0  0
   -1.3049    0.7413    1.0678 C   0  0  0  0  0  0  0  0  0  5  0  0
   -2.0633    0.6968   -0.1017 C   0  0  0  0  0  0  0  0  0  6  0  0
   -3.0736   -0.2445   -0.2604 C   0  0  0  0  0  0  0  0  0  7  0  0
   -3.3435   -1.1506    0.7571 C   0  0  0  0  0  0  0  0  0  8  0  0
   -2.6036   -1.1088    1.9320 C   0  0  0  0  0  0  0  0  0  9  0  0
   -1.5944   -0.1652    2.0846 C   0  0  0  0  0  0  0  0  0 10  0  0
   -4.5984   -2.3224    0.5635 Cl  0  0  0  0  0  0  0  0  0 11  0  0
    0.9065    1.6970    0.1283 C   0  0  0  0  0  0  0  0  0 12  0  0
    1.8734    2.6878   -0.0156 C   0  0  0  0  0  0  0  0  0 13  0  0
    2.8601    2.5891   -0.9896 C   0  0  0  0  0  0  0  0  0 14  0  0
    2.8921    1.4882   -1.8357 C   0  0  0  0  0  0  0  0  0 15  0  0
    1.9357    0.4902   -1.7027 C   0  0  0  0  0  0  0  0  0 16  0  0
    0.9521    0.5975   -0.7266 C   0  0  0  0  0  0  0  0  0 17  0  0
    4.1167    1.3606   -3.0478 Cl  0  0  0  0  0  0  0  0  0 18  0  0
    1.3144    0.3934    3.0560 Cl  0  0  0  0  0  0  0  0  0 19  0  0
  2 19  1  0
 15 18  1  0
 17 12  4  0
 16 17  4  0
 15 16  4  0
 14 15  4  0
 13 14  4  0
 12 13  4  0
  4 12  1  0
  8 11  1  0
 10  5  4  0
  9 10  4  0
  8  9  4  0
  7  8  4  0
  6  7  4  0
  5  6  4  0
  4  5  1  0
  2  4  1  0
  2  3  1  0
  1  2  1  0
M  END