benzamide
  SciTegic01221516373D

  9  9  0  0  0  0            999 V2000
    1.6297    1.2175    0.0001 C   0  0  0  0  0  0  0  0  0  1  0  0
    3.0200    1.2101    0.0006 C   0  0  0  0  0  0  0  0  0  2  0  0
    3.7086    0.0021    0.0005 C   0  0  0  0  0  0  0  0  0  3  0  0
    3.0073   -1.1985   -0.0001 C   0  0  0  0  0  0  0  0  0  4  0  0
    1.6170   -1.1912   -0.0006 C   0  0  0  0  0  0  0  0  0  5  0  0
    0.9289    0.0168   -0.0005 C   0  0  0  0  0  0  0  0  0  6  0  0
   -0.5308    0.0244   -0.0011 C   0  0  0  0  0  0  0  0  0  7  0  0
   -1.1426    1.0983   -0.0010 O   0  0  0  0  0  0  0  0  0  8  0  0
   -1.2342   -1.1811   -0.0017 N   0  0  0  0  0  0  0  0  0  9  0  0
  7  9  1  0
  7  8  2  0
  6  7  1  0
  6  1  4  0
  5  6  4  0
  4  5  4  0
  3  4  4  0
  2  3  4  0
  1  2  4  0
M  END