dieldrin
  SciTegic01221516373D

 25 29  0  0  0  0            999 V2000
    1.3025    0.4589   -0.1495 C   0  0  2  0  0  0  0  0  0  1  0  0
    2.3584    0.7483   -0.0594 H   0  0  0  0  0  0  0  0  0  2  0  0
    0.6415    0.2978   -1.5839 C   0  0  2  0  0  0  0  0  0  3  0  0
    1.1913    0.6130   -2.4832 H   0  0  0  0  0  0  0  0  0  4  0  0
   -0.5651    1.4069   -1.4677 C   0  0  2  0  0  0  0  0  0  5  0  0
    0.1647    2.7005   -1.4369 C   0  0  0  0  0  0  0  0  0  6  0  0
    0.7249    2.8223   -0.2692 C   0  0  0  0  0  0  0  0  0  7  0  0
    0.3900    1.6279    0.5164 C   0  0  1  0  0  0  0  0  0  8  0  0
   -1.1056    1.4279    0.0223 C   0  0  0  0  0  0  0  0  0  9  0  0
   -2.0840    2.8621    0.3429 Cl  0  0  0  0  0  0  0  0  0 10  0  0
   -2.0706    0.0756    0.6357 Cl  0  0  0  0  0  0  0  0  0 11  0  0
    0.6735    1.8567    2.2417 Cl  0  0  0  0  0  0  0  0  0 12  0  0
    1.6827    4.1535    0.2747 Cl  0  0  0  0  0  0  0  0  0 13  0  0
    0.2478    3.8461   -2.7263 Cl  0  0  0  0  0  0  0  0  0 14  0  0
   -1.7310    1.3350   -2.7880 Cl  0  0  0  0  0  0  0  0  0 15  0  0
    0.3812   -1.2697   -1.6206 C   0  0  1  0  0  0  0  0  0 16  0  0
   -0.3028   -1.5553   -2.4334 H   0  0  0  0  0  0  0  0  0 17  0  0
    1.7228   -1.9923   -1.8320 C   0  0  2  0  0  0  0  0  0 18  0  0
    1.6811   -3.0919   -1.9273 H   0  0  0  0  0  0  0  0  0 19  0  0
    2.3666   -1.8226   -0.3832 C   0  0  2  0  0  0  0  0  0 20  0  0
    2.5029   -2.8679   -0.0814 H   0  0  0  0  0  0  0  0  0 21  0  0
    1.2416   -1.0473    0.3373 C   0  0  1  0  0  0  0  0  0 22  0  0
    1.4136   -1.1299    1.4161 H   0  0  0  0  0  0  0  0  0 23  0  0
   -0.0293   -1.6956   -0.2126 C   0  0  0  0  0  0  0  0  0 24  0  0
    2.9541   -1.3666   -1.5803 O   0  0  0  0  0  0  0  0  0 25  0  0
 25 18  1  0
 20 25  1  0
 24 16  1  0
 22 24  1  0
 22  1  1  0
 22 23  1  0
 20 22  1  0
 20 21  1  0
 18 20  1  0
 18 19  1  0
 16 18  1  0
 16 17  1  0
  3 16  1  0
  5 15  1  0
  6 14  1  0
  7 13  1  0
  8 12  1  0
  9 11  1  0
  9 10  1  0
  9  5  1  0
  8  9  1  0
  8  1  1  0
  7  8  1  0
  6  7  2  0
  5  6  1  0
  3  5  1  0
  3  4  1  0
  1  3  1  0
  1  2  1  0
M  END