benzenamine
  SciTegic01221516373D

  7  7  0  0  0  0            999 V2000
   -0.8352    0.9628   -0.0002 C   0  0  0  0  0  0  0  0  0  1  0  0
   -0.1405    2.1672    0.0004 C   0  0  0  0  0  0  0  0  0  2  0  0
    1.2500    2.1677    0.0007 C   0  0  0  0  0  0  0  0  0  3  0  0
    1.9458    0.9639    0.0004 C   0  0  0  0  0  0  0  0  0  4  0  0
    1.2511   -0.2406   -0.0001 C   0  0  0  0  0  0  0  0  0  5  0  0
   -0.1393   -0.2410   -0.0005 C   0  0  0  0  0  0  0  0  0  6  0  0
   -0.8367   -1.4500   -0.0011 N   0  0  0  0  0  0  0  0  0  7  0  0
  6  7  1  0
  6  1  4  0
  5  6  4  0
  4  5  4  0
  3  4  4  0
  2  3  4  0
  1  2  4  0
M  END