methanamine, n-methyl-n-nitroso-
  SciTegic01221516373D

  5  4  0  0  0  0            999 V2000
    0.9953    0.1032    0.2897 N   0  0  0  0  0  0  0  0  0  1  0  0
    1.7146   -0.9806    0.8949 C   0  0  0  0  0  0  0  0  0  2  0  0
    1.7014    1.2665   -0.1668 C   0  0  0  0  0  0  0  0  0  3  0  0
   -0.3258    0.0294    0.1521 N   0  0  0  0  0  0  0  0  0  4  0  0
   -0.9165    0.9169   -0.3436 O   0  0  0  0  0  0  0  0  0  5  0  0
  4  5  2  0
  1  4  1  0
  1  3  1  0
  1  2  1  0
M  END