benzoic acid
  SciTegic01221516373D

  9  9  0  0  0  0            999 V2000
    0.9284    0.0176    0.0000 C   0  0  0  0  0  0  0  0  0  1  0  0
    1.6288    1.2186    0.0004 C   0  0  0  0  0  0  0  0  0  2  0  0
    3.0190    1.2116    0.0005 C   0  0  0  0  0  0  0  0  0  3  0  0
    3.7081    0.0039    0.0002 C   0  0  0  0  0  0  0  0  0  4  0  0
    3.0072   -1.1969   -0.0002 C   0  0  0  0  0  0  0  0  0  5  0  0
    1.6169   -1.1902   -0.0003 C   0  0  0  0  0  0  0  0  0  6  0  0
   -0.5313    0.0247   -0.0001 C   0  0  0  0  0  0  0  0  0  7  0  0
   -1.1435    1.0984    0.0001 O   0  0  0  0  0  0  0  0  0  8  0  0
   -1.2317   -1.1768   -0.0005 O   0  0  0  0  0  0  0  0  0  9  0  0
  7  9  1  0
  7  8  2  0
  1  7  1  0
  6  1  4  0
  5  6  4  0
  4  5  4  0
  3  4  4  0
  2  3  4  0
  1  2  4  0
M  END