2-propanol
  SciTegic01221516373D

  4  3  0  0  0  0            999 V2000
   -0.4859   -0.0963   -0.0793 C   0  0  0  0  0  0  0  0  0  1  0  0
    1.0541   -0.0857   -0.0775 C   0  0  0  0  0  0  0  0  0  2  0  0
    1.5666   -0.0934    1.3747 C   0  0  0  0  0  0  0  0  0  3  0  0
    1.5241    1.0893   -0.7433 O   0  0  0  0  0  0  0  0  0  4  0  0
  2  4  1  0
  2  3  1  0
  1  2  1  0
M  END