2-propanone
  SciTegic01221516373D

  4  3  0  0  0  0            999 V2000
   -0.3042    0.0028    0.0004 O   0  0  0  0  0  0  0  0  0  1  0  0
    0.9321    0.0003    0.0000 C   0  0  0  0  0  0  0  0  0  2  0  0
    1.6832   -0.0008    1.3001 C   0  0  0  0  0  0  0  0  0  3  0  0
    1.6824   -0.0018   -1.3005 C   0  0  0  0  0  0  0  0  0  4  0  0
  2  4  1  0
  2  3  1  0
  1  2  2  0
M  END