benzoic acid, 2-hydroxy-
  SciTegic01221516373D

 10 10  0  0  0  0            999 V2000
    3.7190    0.0763   -0.0004 C   0  0  0  0  0  0  0  0  0  1  0  0
    3.0252   -1.1282   -0.0007 C   0  0  0  0  0  0  0  0  0  2  0  0
    1.6348   -1.1335   -0.0003 C   0  0  0  0  0  0  0  0  0  3  0  0
    0.9355    0.0706    0.0002 C   0  0  0  0  0  0  0  0  0  4  0  0
    1.6314    1.2744    0.0005 C   0  0  0  0  0  0  0  0  0  5  0  0
    3.0214    1.2785    0.0002 C   0  0  0  0  0  0  0  0  0  6  0  0
   -0.5331    0.0915    0.0006 C   0  0  0  0  0  0  0  0  0  7  0  0
   -1.1277    1.1749    0.0011 O   0  0  0  0  0  0  0  0  0  8  0  0
   -1.2615   -1.0937    0.0003 O   0  0  0  0  0  0  0  0  0  9  0  0
    0.9553   -2.3467   -0.0006 O   0  0  0  0  0  0  0  0  0 10  0  0
  3 10  1  0
  7  9  1  0
  7  8  2  0
  4  7  1  0
  6  1  4  0
  5  6  4  0
  4  5  4  0
  3  4  4  0
  2  3  4  0
  1  2  4  0
M  END