methane, dichloro-
  SciTegic01221516373D

  3  2  0  0  0  0            999 V2000
   -0.1699   -0.2399   -0.0003 C   0  0  0  0  0  0  0  0  0  1  0  0
    1.5970   -0.2435   -0.0009 Cl  0  0  0  0  0  0  0  0  0  2  0  0
   -0.7564    1.4269   -0.0005 Cl  0  0  0  0  0  0  0  0  0  3  0  0
  1  3  1  0
  1  2  1  0
M  END