2-propanol, 2-methyl-
  SciTegic01221516373D

  5  4  0  0  0  0            999 V2000
    0.0238   -0.0003   -0.0009 C   0  0  0  0  0  0  0  0  0  1  0  0
    1.4538   -0.0005   -0.0004 O   0  0  0  0  0  0  0  0  0  2  0  0
   -0.4893    1.4517   -0.0012 C   0  0  0  0  0  0  0  0  0  3  0  0
   -0.4901   -0.7260    1.2564 C   0  0  0  0  0  0  0  0  0  4  0  0
   -0.4893   -0.7263   -1.2584 C   0  0  0  0  0  0  0  0  0  5  0  0
  1  5  1  0
  1  4  1  0
  1  3  1  0
  1  2  1  0
M  END