ethane, pentachloro-
  SciTegic01221516373D

  7  6  0  0  0  0            999 V2000
   -0.7630   -0.1739    0.5615 Cl  0  0  0  0  0  0  0  0  0  1  0  0
    0.8715    0.1947    0.0013 C   0  0  0  0  0  0  0  0  0  2  0  0
    1.9280    0.4518    1.3936 Cl  0  0  0  0  0  0  0  0  0  3  0  0
    0.8398    1.6549   -0.9925 Cl  0  0  0  0  0  0  0  0  0  4  0  0
    1.4045   -0.9822   -0.8339 C   0  0  0  0  0  0  0  0  0  5  0  0
    1.4366   -2.4411    0.1616 Cl  0  0  0  0  0  0  0  0  0  6  0  0
    3.0391   -0.6125   -1.3922 Cl  0  0  0  0  0  0  0  0  0  7  0  0
  5  7  1  0
  5  6  1  0
  2  5  1  0
  2  4  1  0
  2  3  1  0
  1  2  1  0
M  END