2-propenoic acid, 2-methyl-, methyl ester
  SciTegic01221516373D

  7  6  0  0  0  0            999 V2000
    3.2224   -0.8898   -0.0006 C   0  0  0  0  0  0  0  0  0  1  0  0
    1.8125   -1.1338   -0.0003 O   0  0  0  0  0  0  0  0  0  2  0  0
    1.1246    0.0778   -0.0003 C   0  0  0  0  0  0  0  0  0  3  0  0
    1.7471    1.1462   -0.0005 O   0  0  0  0  0  0  0  0  0  4  0  0
   -0.3369    0.0862   -0.0001 C   0  0  0  0  0  0  0  0  0  5  0  0
   -0.9951    1.2432   -0.0001 C   0  0  0  0  0  0  0  0  0  6  0  0
   -1.0951   -1.2095    0.0001 C   0  0  0  0  0  0  0  0  0  7  0  0
  5  7  1  0
  5  6  2  0
  3  5  1  0
  3  4  2  0
  2  3  1  0
  1  2  1  0
M  END