1,2-benzenedicarboxylic acid, diethyl ester
  SciTegic01221516373D

 16 16  0  0  0  0            999 V2000
    3.9217   -0.4249    0.2280 C   0  0  0  0  0  0  0  0  0  1  0  0
    3.1552   -1.5795    0.2361 C   0  0  0  0  0  0  0  0  0  2  0  0
    1.7781   -1.4857    0.0913 C   0  0  0  0  0  0  0  0  0  3  0  0
    1.1427   -0.2567   -0.0630 C   0  0  0  0  0  0  0  0  0  4  0  0
    1.9200    0.9155   -0.0714 C   0  0  0  0  0  0  0  0  0  5  0  0
    3.3003    0.8067    0.0751 C   0  0  0  0  0  0  0  0  0  6  0  0
    1.4153    2.3174   -0.2246 C   0  0  0  0  0  0  0  0  0  7  0  0
    2.2533    3.2272   -0.2139 O   0  0  0  0  0  0  0  0  0  8  0  0
    0.0669    2.6338   -0.3987 O   0  0  0  0  0  0  0  0  0  9  0  0
   -0.1569    4.0543   -0.4997 C   0  0  0  0  0  0  0  0  0 10  0  0
   -0.0204    4.7323    0.8870 C   0  0  0  0  0  0  0  0  0 11  0  0
   -0.3397   -0.3303   -0.2053 C   0  0  0  0  0  0  0  0  0 12  0  0
   -1.0436    0.6669   -0.3607 O   0  0  0  0  0  0  0  0  0 13  0  0
   -0.9366   -1.6040   -0.1797 O   0  0  0  0  0  0  0  0  0 14  0  0
   -2.3714   -1.5401   -0.3055 C   0  0  0  0  0  0  0  0  0 15  0  0
   -3.0175   -1.0313    1.0079 C   0  0  0  0  0  0  0  0  0 16  0  0
 15 16  1  0
 14 15  1  0
 12 14  1  0
 12 13  2  0
  4 12  1  0
 10 11  1  0
  9 10  1  0
  7  9  1  0
  7  8  2  0
  5  7  1  0
  6  1  4  0
  5  6  4  0
  4  5  4  0
  3  4  4  0
  2  3  4  0
  1  2  4  0
M  END