phenanthrene
  SciTegic01221516373D

 14 16  0  0  0  0            999 V2000
   -2.2629    4.0178   -0.5705 C   0  0  0  0  0  0  0  0  0  1  0  0
   -3.0425    3.8333    0.5658 C   0  0  0  0  0  0  0  0  0  2  0  0
   -2.7632    2.7877    1.4384 C   0  0  0  0  0  0  0  0  0  3  0  0
   -1.7042    1.9266    1.1746 C   0  0  0  0  0  0  0  0  0  4  0  0
   -0.9241    2.1109    0.0380 C   0  0  0  0  0  0  0  0  0  5  0  0
   -1.2038    3.1568   -0.8343 C   0  0  0  0  0  0  0  0  0  6  0  0
    0.1347    1.2492   -0.2247 C   0  0  0  0  0  0  0  0  0  7  0  0
    0.4127    0.2036    0.6494 C   0  0  0  0  0  0  0  0  0  8  0  0
   -0.3673    0.0199    1.7852 C   0  0  0  0  0  0  0  0  0  9  0  0
   -1.4259    0.8815    2.0479 C   0  0  0  0  0  0  0  0  0 10  0  0
    1.4711   -0.6587    0.3879 C   0  0  0  0  0  0  0  0  0 11  0  0
    2.2520   -0.4760   -0.7478 C   0  0  0  0  0  0  0  0  0 12  0  0
    1.9744    0.5690   -1.6218 C   0  0  0  0  0  0  0  0  0 13  0  0
    0.9160    1.4315   -1.3603 C   0  0  0  0  0  0  0  0  0 14  0  0
 14  7  4  0
 13 14  4  0
 12 13  4  0
 11 12  4  0
  8 11  4  0
 10  4  4  0
  9 10  4  0
  8  9  4  0
  7  8  4  0
  5  7  4  0
  6  1  4  0
  5  6  4  0
  4  5  4  0
  3  4  4  0
  2  3  4  0
  1  2  4  0
M  END