1,2-benzenedicarboxylic acid, butyl phenylmethyl ester
  SciTegic01221516373D

 23 24  0  0  0  0            999 V2000
    3.1817    3.8800    1.2033 C   0  0  0  0  0  0  0  0  0  1  0  0
    3.3120    4.9330    0.3054 C   0  0  0  0  0  0  0  0  0  2  0  0
    4.5615    5.2537   -0.2128 C   0  0  0  0  0  0  0  0  0  3  0  0
    5.6799    4.5210    0.1682 C   0  0  0  0  0  0  0  0  0  4  0  0
    5.5487    3.4681    1.0667 C   0  0  0  0  0  0  0  0  0  5  0  0
    4.2993    3.1443    1.5840 C   0  0  0  0  0  0  0  0  0  6  0  0
    4.1719    2.0012    2.5681 C   0  0  0  0  0  0  0  0  0  7  0  0
    2.7842    1.7310    2.8898 O   0  0  0  0  0  0  0  0  0  8  0  0
    1.9004    0.8963    2.0415 C   0  0  0  0  0  0  0  0  0  9  0  0
    0.7538    0.8291    2.4753 O   0  0  0  0  0  0  0  0  0 10  0  0
    2.2624    0.0904    0.7239 C   0  0  0  0  0  0  0  0  0 11  0  0
    3.5781    0.0622    0.2582 C   0  0  0  0  0  0  0  0  0 12  0  0
    3.9688   -0.6313   -0.8780 C   0  0  0  0  0  0  0  0  0 13  0  0
    3.0245   -1.3401   -1.5981 C   0  0  0  0  0  0  0  0  0 14  0  0
    1.7097   -1.3342   -1.1614 C   0  0  0  0  0  0  0  0  0 15  0  0
    1.3113   -0.6375   -0.0230 C   0  0  0  0  0  0  0  0  0 16  0  0
   -0.1533   -0.7605    0.2678 C   0  0  0  0  0  0  0  0  0 17  0  0
   -0.7090   -0.1853    1.2034 O   0  0  0  0  0  0  0  0  0 18  0  0
   -0.9134   -1.5895   -0.5766 O   0  0  0  0  0  0  0  0  0 19  0  0
   -2.3068   -1.6040   -0.2130 C   0  0  0  0  0  0  0  0  0 20  0  0
   -3.0105   -0.3080   -0.6914 C   0  0  0  0  0  0  0  0  0 21  0  0
   -2.9269   -0.2062   -2.2308 C   0  0  0  0  0  0  0  0  0 22  0  0
   -3.6321   -1.4177   -2.8747 C   0  0  0  0  0  0  0  0  0 23  0  0
 22 23  1  0
 21 22  1  0
 20 21  1  0
 19 20  1  0
 17 19  1  0
 17 18  2  0
 16 17  1  0
 16 11  4  0
 15 16  4  0
 14 15  4  0
 13 14  4  0
 12 13  4  0
 11 12  4  0
  9 11  1  0
  9 10  2  0
  8  9  1  0
  7  8  1  0
  6  7  1  0
  6  1  4  0
  5  6  4  0
  4  5  4  0
  3  4  4  0
  2  3  4  0
  1  2  4  0
M  END