9h-fluorene
  SciTegic01221516373D

 13 15  0  0  0  0            999 V2000
   -0.6996    4.3158    1.9184 C   0  0  0  0  0  0  0  0  0  1  0  0
    0.3929    3.5161    2.2532 C   0  0  0  0  0  0  0  0  0  2  0  0
    0.6009    2.3641    1.5098 C   0  0  0  0  0  0  0  0  0  3  0  0
   -0.2485    2.0277    0.4760 C   0  0  0  0  0  0  0  0  0  4  0  0
   -1.3393    2.8078    0.1269 C   0  0  0  0  0  0  0  0  0  5  0  0
   -1.5550    3.9672    0.8694 C   0  0  0  0  0  0  0  0  0  6  0  0
    0.1911    0.8209   -0.1039 C   0  0  0  0  0  0  0  0  0  7  0  0
    1.3203    0.3890    0.5608 C   0  0  0  0  0  0  0  0  0  8  0  0
    1.7305    1.3394    1.6961 C   0  0  0  0  0  0  0  0  0  9  0  0
    1.9590   -0.7838    0.1871 C   0  0  0  0  0  0  0  0  0 10  0  0
    1.4204   -1.5047   -0.8783 C   0  0  0  0  0  0  0  0  0 11  0  0
    0.2759   -1.0597   -1.5460 C   0  0  0  0  0  0  0  0  0 12  0  0
   -0.3603    0.1200   -1.1645 C   0  0  0  0  0  0  0  0  0 13  0  0
 13  7  4  0
 12 13  4  0
 11 12  4  0
 10 11  4  0
  8 10  4  0
  9  3  1  0
  8  9  1  0
  7  8  4  0
  4  7  1  0
  6  1  4  0
  5  6  4  0
  4  5  4  0
  3  4  4  0
  2  3  4  0
  1  2  4  0
M  END