benzene, 1-methyl-2-nitro-
  SciTegic01221516373D

 10 10  0  0  0  0            999 V2000
   -0.6721    1.2098   -0.0943 C   0  0  0  0  0  0  0  0  0  1  0  0
    0.1131    2.3510   -0.2266 C   0  0  0  0  0  0  0  0  0  2  0  0
    1.4968    2.2798   -0.1328 C   0  0  0  0  0  0  0  0  0  3  0  0
    2.1069    1.0548    0.0961 C   0  0  0  0  0  0  0  0  0  4  0  0
    1.3288   -0.0881    0.2291 C   0  0  0  0  0  0  0  0  0  5  0  0
   -0.0587   -0.0297    0.1370 C   0  0  0  0  0  0  0  0  0  6  0  0
   -0.7593   -1.2747    0.2907 N   0  3  0  0  0  0  0  0  0  7  0  0
   -2.0796   -1.3873    0.2296 O   0  0  0  0  0  0  0  0  0  8  0  0
   -0.0468   -2.3699    0.5053 O   0  5  0  0  0  0  0  0  0  9  0  0
   -2.1656    1.3849   -0.2110 C   0  0  0  0  0  0  0  0  0 10  0  0
  1 10  1  0
  7  9  1  0
  7  8  2  0
  6  7  1  0
  6  1  4  0
  5  6  4  0
  4  5  4  0
  3  4  4  0
  2  3  4  0
  1  2  4  0
M CHG   2   7   1   9  -1
M  END