1,2-benzenedicarboxylic acid
  SciTegic01221516373D

 12 12  0  0  0  0            999 V2000
    3.0153   -1.4036   -0.0002 C   0  0  0  0  0  0  0  0  0  1  0  0
    1.6275   -1.3765   -0.0004 C   0  0  0  0  0  0  0  0  0  2  0  0
    0.9221   -0.1763   -0.0002 C   0  0  0  0  0  0  0  0  0  3  0  0
    1.6373    1.0345    0.0003 C   0  0  0  0  0  0  0  0  0  4  0  0
    3.0290    0.9928    0.0005 C   0  0  0  0  0  0  0  0  0  5  0  0
    3.7208   -0.2106    0.0003 C   0  0  0  0  0  0  0  0  0  6  0  0
    1.0482    2.4119    0.0006 C   0  0  0  0  0  0  0  0  0  7  0  0
    1.8228    3.3749    0.0010 O   0  0  0  0  0  0  0  0  0  8  0  0
   -0.3073    2.6679    0.0004 O   0  0  0  0  0  0  0  0  0  9  0  0
   -0.5628   -0.3171   -0.0005 C   0  0  0  0  0  0  0  0  0 10  0  0
   -1.3304    0.6440   -0.0003 O   0  0  0  0  0  0  0  0  0 11  0  0
   -1.1046   -1.5976   -0.0009 O   0  0  0  0  0  0  0  0  0 12  0  0
 10 12  1  0
 10 11  2  0
  3 10  1  0
  7  9  1  0
  7  8  2  0
  4  7  1  0
  6  1  4  0
  5  6  4  0
  4  5  4  0
  3  4  4  0
  2  3  4  0
  1  2  4  0
M  END