quinoline
  SciTegic01221516373D

 10 11  0  0  0  0            999 V2000
   -0.2544    1.1298    0.4460 C   0  0  0  0  0  0  0  0  0  1  0  0
    0.6108    2.1894    0.1953 C   0  0  0  0  0  0  0  0  0  2  0  0
    0.2348    3.4397    0.4453 N   0  0  0  0  0  0  0  0  0  3  0  0
   -0.9677    3.7195    0.9383 C   0  0  0  0  0  0  0  0  0  4  0  0
   -1.8776    2.7040    1.2101 C   0  0  0  0  0  0  0  0  0  5  0  0
   -1.5173    1.3869    0.9607 C   0  0  0  0  0  0  0  0  0  6  0  0
    1.8776    1.9399   -0.3203 C   0  0  0  0  0  0  0  0  0  7  0  0
    2.2770    0.6344   -0.5841 C   0  0  0  0  0  0  0  0  0  8  0  0
    1.4102   -0.4233   -0.3326 C   0  0  0  0  0  0  0  0  0  9  0  0
    0.1431   -0.1759    0.1830 C   0  0  0  0  0  0  0  0  0 10  0  0
 10  1  4  0
  9 10  4  0
  8  9  4  0
  7  8  4  0
  2  7  4  0
  6  1  4  0
  5  6  4  0
  4  5  4  0
  3  4  4  0
  2  3  4  0
  1  2  4  0
M  END