1,1'-biphenyl (PCB 0)
  SciTegic01221516373D

 12 13  0  0  0  0            999 V2000
    0.0929    1.4130    2.5442 C   0  0  0  0  0  0  0  0  0  1  0  0
   -0.0700    1.9218    1.2606 C   0  0  0  0  0  0  0  0  0  2  0  0
   -0.7461    3.1215    1.0686 C   0  0  0  0  0  0  0  0  0  3  0  0
   -1.2594    3.8124    2.1604 C   0  0  0  0  0  0  0  0  0  4  0  0
   -1.0965    3.3035    3.4441 C   0  0  0  0  0  0  0  0  0  5  0  0
   -0.4204    2.1039    3.6360 C   0  0  0  0  0  0  0  0  0  6  0  0
    0.4695    1.1957    0.1130 C   0  0  0  0  0  0  0  0  0  7  0  0
    0.3066    1.7045   -1.1707 C   0  0  0  0  0  0  0  0  0  8  0  0
    0.8199    1.0136   -2.2625 C   0  0  0  0  0  0  0  0  0  9  0  0
    1.4960   -0.1861   -2.0705 C   0  0  0  0  0  0  0  0  0 10  0  0
    1.6589   -0.6949   -0.7869 C   0  0  0  0  0  0  0  0  0 11  0  0
    1.1456   -0.0040    0.3049 C   0  0  0  0  0  0  0  0  0 12  0  0
 12  7  4  0
 11 12  4  0
 10 11  4  0
  9 10  4  0
  8  9  4  0
  7  8  4  0
  2  7  1  0
  6  1  4  0
  5  6  4  0
  4  5  4  0
  3  4  4  0
  2  3  4  0
  1  2  4  0
M  END