benzene, 1,2-dichloro-
  SciTegic01221516373D

  8  8  0  0  0  0            999 V2000
   -1.1000    0.7453    0.0002 C   0  0  0  0  0  0  0  0  0  1  0  0
   -0.4050    1.9495    0.0003 C   0  0  0  0  0  0  0  0  0  2  0  0
    0.9854    1.9492   -0.0003 C   0  0  0  0  0  0  0  0  0  3  0  0
    1.6805    0.7452   -0.0011 C   0  0  0  0  0  0  0  0  0  4  0  0
    0.9857   -0.4591   -0.0012 C   0  0  0  0  0  0  0  0  0  5  0  0
   -0.4047   -0.4589   -0.0006 C   0  0  0  0  0  0  0  0  0  6  0  0
    3.4081    0.7463   -0.0019 Cl  0  0  0  0  0  0  0  0  0  7  0  0
    1.8501    3.4448   -0.0002 Cl  0  0  0  0  0  0  0  0  0  8  0  0
  3  8  1  0
  4  7  1  0
  6  1  4  0
  5  6  4  0
  4  5  4  0
  3  4  4  0
  2  3  4  0
  1  2  4  0
M  END