benzene, 1,2,4,5-tetrachloro-
  SciTegic01221516373D

 10 10  0  0  0  0            999 V2000
   -0.8904    0.8659    0.0010 C   0  0  0  0  0  0  0  0  0  1  0  0
   -0.1957    2.0702    0.0005 C   0  0  0  0  0  0  0  0  0  2  0  0
    1.1945    2.0697   -0.0001 C   0  0  0  0  0  0  0  0  0  3  0  0
    1.8897    0.8657   -0.0003 C   0  0  0  0  0  0  0  0  0  4  0  0
    1.1950   -0.3386    0.0002 C   0  0  0  0  0  0  0  0  0  5  0  0
   -0.1953   -0.3381    0.0009 C   0  0  0  0  0  0  0  0  0  6  0  0
   -1.0600   -1.8336    0.0015 Cl  0  0  0  0  0  0  0  0  0  7  0  0
    3.6172    0.8668   -0.0011 Cl  0  0  0  0  0  0  0  0  0  8  0  0
    2.0592    3.5652   -0.0008 Cl  0  0  0  0  0  0  0  0  0  9  0  0
   -2.6179    0.8648    0.0018 Cl  0  0  0  0  0  0  0  0  0 10  0  0
  1 10  1  0
  3  9  1  0
  4  8  1  0
  6  7  1  0
  6  1  4  0
  5  6  4  0
  4  5  4  0
  3  4  4  0
  2  3  4  0
  1  2  4  0
M  END