oxirane, phenyl-
  SciTegic01221516373D

 10 11  0  0  0  0            999 V2000
   -0.7373   -0.6549    0.0083 C   0  0  2  0  0  0  0  0  0  1  0  0
   -0.5992   -1.6237    0.5092 H   0  0  0  0  0  0  0  0  0  2  0  0
    0.4264    0.2669   -0.2061 C   0  0  0  0  0  0  0  0  0  3  0  0
    1.6912   -0.0993    0.2395 C   0  0  0  0  0  0  0  0  0  4  0  0
    2.7714    0.7533    0.0414 C   0  0  0  0  0  0  0  0  0  5  0  0
    2.5865    1.9718   -0.6024 C   0  0  0  0  0  0  0  0  0  6  0  0
    1.3214    2.3377   -1.0484 C   0  0  0  0  0  0  0  0  0  7  0  0
    0.2412    1.4852   -0.8503 C   0  0  0  0  0  0  0  0  0  8  0  0
   -2.0637    0.0260    0.2322 C   0  0  0  0  0  0  0  0  0  9  0  0
   -1.7501   -0.6090   -1.0268 O   0  0  0  0  0  0  0  0  0 10  0  0
 10  1  1  0
  9 10  1  0
  1  9  1  0
  8  3  4  0
  7  8  4  0
  6  7  4  0
  5  6  4  0
  4  5  4  0
  3  4  4  0
  1  3  1  0
  1  2  1  0
M  END