benzene, (1-methylethyl)-
  SciTegic01221516373D

  9  9  0  0  0  0            999 V2000
   -0.6806    1.1999   -0.2898 C   0  0  0  0  0  0  0  0  0  1  0  0
    0.0552    2.3795   -0.3047 C   0  0  0  0  0  0  0  0  0  2  0  0
    1.4244    2.3479   -0.0656 C   0  0  0  0  0  0  0  0  0  3  0  0
    2.0576    1.1364    0.1881 C   0  0  0  0  0  0  0  0  0  4  0  0
    1.3215   -0.0430    0.2029 C   0  0  0  0  0  0  0  0  0  5  0  0
   -0.0484   -0.0125   -0.0355 C   0  0  0  0  0  0  0  0  0  6  0  0
   -0.8458   -1.2910   -0.0204 C   0  0  0  0  0  0  0  0  0  7  0  0
   -2.3345   -1.0593    0.3043 C   0  0  0  0  0  0  0  0  0  8  0  0
   -0.1870   -2.3925    0.8328 C   0  0  0  0  0  0  0  0  0  9  0  0
  7  9  1  0
  7  8  1  0
  6  7  1  0
  6  1  4  0
  5  6  4  0
  4  5  4  0
  3  4  4  0
  2  3  4  0
  1  2  4  0
M  END