benzene, 1-methyl-4-nitro-
  SciTegic01221516373D

 10 10  0  0  0  0            999 V2000
   -1.0931    0.9007   -0.0889 C   0  0  0  0  0  0  0  0  0  1  0  0
   -0.3714    2.0587    0.1782 C   0  0  0  0  0  0  0  0  0  2  0  0
    1.0129    2.0037    0.2928 C   0  0  0  0  0  0  0  0  0  3  0  0
    1.6747    0.7906    0.1403 C   0  0  0  0  0  0  0  0  0  4  0  0
    0.9534   -0.3674   -0.1268 C   0  0  0  0  0  0  0  0  0  5  0  0
   -0.4310   -0.3123   -0.2414 C   0  0  0  0  0  0  0  0  0  6  0  0
    3.0623    0.7354    0.2552 N   0  3  0  0  0  0  0  0  0  7  0  0
    3.6926   -0.4200    0.1099 O   0  0  0  0  0  0  0  0  0  8  0  0
    3.7494    1.8385    0.5096 O   0  5  0  0  0  0  0  0  0  9  0  0
   -2.5875    0.9602   -0.2127 C   0  0  0  0  0  0  0  0  0 10  0  0
  1 10  1  0
  7  9  1  0
  7  8  2  0
  4  7  1  0
  6  1  4  0
  5  6  4  0
  4  5  4  0
  3  4  4  0
  2  3  4  0
  1  2  4  0
M CHG   2   7   1   9  -1
M  END