benzene, ethenyl-
  SciTegic01221516373D

  8  8  0  0  0  0            999 V2000
    2.9160   -1.2540    0.0004 C   0  0  0  0  0  0  0  0  0  1  0  0
    1.5257   -1.2397    0.0005 C   0  0  0  0  0  0  0  0  0  2  0  0
    0.8429   -0.0286    0.0005 C   0  0  0  0  0  0  0  0  0  3  0  0
    1.5506    1.1684    0.0005 C   0  0  0  0  0  0  0  0  0  4  0  0
    2.9409    1.1542    0.0004 C   0  0  0  0  0  0  0  0  0  5  0  0
    3.6235   -0.0570    0.0003 C   0  0  0  0  0  0  0  0  0  6  0  0
   -0.6204   -0.0161    0.0007 C   0  0  0  0  0  0  0  0  0  7  0  0
   -1.2789    1.1411    0.0007 C   0  0  0  0  0  0  0  0  0  8  0  0
  7  8  2  0
  3  7  1  0
  6  1  4  0
  5  6  4  0
  4  5  4  0
  3  4  4  0
  2  3  4  0
  1  2  4  0
M  END