benzene, methoxy-
  SciTegic01221516373D

  8  8  0  0  0  0            999 V2000
   -1.0469    0.7138    0.0008 C   0  0  0  0  0  0  0  0  0  1  0  0
   -0.3373    1.9095    0.0007 C   0  0  0  0  0  0  0  0  0  2  0  0
    1.0532    1.8970    0.0006 C   0  0  0  0  0  0  0  0  0  3  0  0
    1.7321    0.6816    0.0006 C   0  0  0  0  0  0  0  0  0  4  0  0
    1.0232   -0.5146    0.0007 C   0  0  0  0  0  0  0  0  0  5  0  0
   -0.3668   -0.4986    0.0008 C   0  0  0  0  0  0  0  0  0  6  0  0
    1.7534    3.1158    0.0005 O   0  0  0  0  0  0  0  0  0  7  0  0
    3.1733    2.9033    0.0004 C   0  0  0  0  0  0  0  0  0  8  0  0
  7  8  1  0
  3  7  1  0
  6  1  4  0
  5  6  4  0
  4  5  4  0
  3  4  4  0
  2  3  4  0
  1  2  4  0
M  END