benzeneacetic acid
  SciTegic01221516373D

 10 10  0  0  0  0            999 V2000
    1.4726    1.0164    0.0001 C   0  0  0  0  0  0  0  0  0  1  0  0
    0.6458    2.1360    0.0000 C   0  0  0  0  0  0  0  0  0  2  0  0
    1.1890    3.4156   -0.0005 C   0  0  0  0  0  0  0  0  0  3  0  0
    2.5683    3.5848   -0.0009 C   0  0  0  0  0  0  0  0  0  4  0  0
    3.4002    2.4717   -0.0008 C   0  0  0  0  0  0  0  0  0  5  0  0
    2.8523    1.1938   -0.0002 C   0  0  0  0  0  0  0  0  0  6  0  0
    0.9256   -0.4164    0.0007 C   0  0  0  0  0  0  0  0  0  7  0  0
   -0.5972   -0.5844    0.0006 C   0  0  0  0  0  0  0  0  0  8  0  0
   -1.3729    0.3773   -0.0004 O   0  0  0  0  0  0  0  0  0  9  0  0
   -1.1272   -1.8704    0.0015 O   0  0  0  0  0  0  0  0  0 10  0  0
  8 10  1  0
  8  9  2  0
  7  8  1  0
  1  7  1  0
  6  1  4  0
  5  6  4  0
  4  5  4  0
  3  4  4  0
  2  3  4  0
  1  2  4  0
M  END