phenol, 2,4-dimethyl-
  SciTegic01221516373D

  9  9  0  0  0  0            999 V2000
   -0.9267    0.9523   -0.0009 C   0  0  0  0  0  0  0  0  0  1  0  0
   -0.2311    2.1562   -0.0012 C   0  0  0  0  0  0  0  0  0  2  0  0
    1.1592    2.1554   -0.0011 C   0  0  0  0  0  0  0  0  0  3  0  0
    1.8534    0.9508   -0.0008 C   0  0  0  0  0  0  0  0  0  4  0  0
    1.1575   -0.2529   -0.0005 C   0  0  0  0  0  0  0  0  0  5  0  0
   -0.2327   -0.2523   -0.0006 C   0  0  0  0  0  0  0  0  0  6  0  0
    1.9071   -1.5526   -0.0002 C   0  0  0  0  0  0  0  0  0  7  0  0
    3.2441    0.9496   -0.0007 O   0  0  0  0  0  0  0  0  0  8  0  0
   -2.4272    0.9530   -0.0010 C   0  0  0  0  0  0  0  0  0  9  0  0
  1  9  1  0
  4  8  1  0
  5  7  1  0
  6  1  4  0
  5  6  4  0
  4  5  4  0
  3  4  4  0
  2  3  4  0
  1  2  4  0
M  END