benzene, 1,4-dichloro-
  SciTegic01221516373D

  8  8  0  0  0  0            999 V2000
   -0.8897    0.8666   -0.0018 C   0  0  0  0  0  0  0  0  0  1  0  0
   -0.1941    2.0704   -0.0015 C   0  0  0  0  0  0  0  0  0  2  0  0
    1.1963    2.0695    0.0001 C   0  0  0  0  0  0  0  0  0  3  0  0
    1.8913    0.8653    0.0014 C   0  0  0  0  0  0  0  0  0  4  0  0
    1.1957   -0.3385    0.0011 C   0  0  0  0  0  0  0  0  0  5  0  0
   -0.1948   -0.3377   -0.0005 C   0  0  0  0  0  0  0  0  0  6  0  0
   -1.0593   -1.8337   -0.0009 Cl  0  0  0  0  0  0  0  0  0  7  0  0
    2.0608    3.5656    0.0004 Cl  0  0  0  0  0  0  0  0  0  8  0  0
  3  8  1  0
  6  7  1  0
  6  1  4  0
  5  6  4  0
  4  5  4  0
  3  4  4  0
  2  3  4  0
  1  2  4  0
M  END