benzenamine, 4-chloro-
  SciTegic01221516373D

  8  8  0  0  0  0            999 V2000
   -2.2605    1.2751    1.0298 Cl  0  0  0  0  0  0  0  0  0  1  0  0
   -0.6260    1.0939    0.5000 C   0  0  0  0  0  0  0  0  0  2  0  0
    0.0873    2.2014    0.0553 C   0  0  0  0  0  0  0  0  0  3  0  0
    1.4026    2.0556   -0.3710 C   0  0  0  0  0  0  0  0  0  4  0  0
    2.0042    0.8022   -0.3524 C   0  0  0  0  0  0  0  0  0  5  0  0
    1.2909   -0.3054    0.0923 C   0  0  0  0  0  0  0  0  0  6  0  0
   -0.0244   -0.1595    0.5186 C   0  0  0  0  0  0  0  0  0  7  0  0
    3.3246    0.6558   -0.7804 N   0  0  0  0  0  0  0  0  0  8  0  0
  5  8  1  0
  7  2  4  0
  6  7  4  0
  5  6  4  0
  4  5  4  0
  3  4  4  0
  2  3  4  0
  1  2  1  0
M  END