2-propenal
  SciTegic01221516373D

  4  3  0  0  0  0            999 V2000
    1.2121   -0.1325   -0.0003 C   0  0  0  0  0  0  0  0  0  1  0  0
    1.8910    1.0127   -0.0011 C   0  0  0  0  0  0  0  0  0  2  0  0
   -0.2503   -0.1145    0.0002 C   0  0  0  0  0  0  0  0  0  3  0  0
   -0.8545    0.9639    0.0000 O   0  0  0  0  0  0  0  0  0  4  0  0
  3  4  2  0
  1  3  1  0
  1  2  2  0
M  END