butanoic acid
  SciTegic01221516373D

  6  5  0  0  0  0            999 V2000
   -0.0925   -0.3767    0.0455 C   0  0  0  0  0  0  0  0  0  1  0  0
    1.0344   -0.5634    0.5201 O   0  0  0  0  0  0  0  0  0  2  0  0
   -0.6891    1.0124   -0.0104 C   0  0  0  0  0  0  0  0  0  3  0  0
    0.3322    2.0933    0.4237 C   0  0  0  0  0  0  0  0  0  4  0  0
    1.4943    2.1839   -0.5920 C   0  0  0  0  0  0  0  0  0  5  0  0
   -0.8422   -1.4638   -0.3917 O   0  0  0  0  0  0  0  0  0  6  0  0
  1  6  1  0
  4  5  1  0
  3  4  1  0
  1  3  1  0
  1  2  2  0
M  END