propane, 2,2'-oxybis 1-chloro-
  SciTegic01221516373D

 11 10  0  0  0  0            999 V2000
    0.1754    2.2355   -3.3335 C   0  0  2  0  0  0  0  0  0  1  0  0
    0.1226    3.3258   -3.3362 H   0  0  0  0  0  0  0  0  0  2  0  0
    1.2800    1.7838   -2.5000 O   0  0  0  0  0  0  0  0  0  3  0  0
    1.2711    2.1643   -1.0713 C   0  0  2  0  0  0  0  0  0  4  0  0
    0.3537    1.8117   -0.5824 H   0  0  0  0  0  0  0  0  0  5  0  0
    1.4647    3.7006   -0.7873 C   0  0  0  0  0  0  0  0  0  6  0  0
    0.1273    4.7260   -1.3401 Cl  0  0  0  0  0  0  0  0  0  7  0  0
    2.4694    1.4462   -0.4257 C   0  0  0  0  0  0  0  0  0  8  0  0
    0.4307    1.7543   -4.7707 C   0  0  0  0  0  0  0  0  0  9  0  0
    1.9583    2.4269   -5.3472 Cl  0  0  0  0  0  0  0  0  0 10  0  0
   -1.1723    1.6440   -2.8539 C   0  0  0  0  0  0  0  0  0 11  0  0
  1 11  1  0
  9 10  1  0
  1  9  1  0
  4  8  1  0
  6  7  1  0
  4  6  1  0
  4  5  1  0
  3  4  1  0
  1  3  1  0
  1  2  1  0
M  END