pyridine, 4-methyl-
  SciTegic01221516373D

  7  7  0  0  0  0            999 V2000
   -0.8148    0.9813    0.0007 C   0  0  0  0  0  0  0  0  0  1  0  0
   -0.0889    2.1670    0.0001 C   0  0  0  0  0  0  0  0  0  2  0  0
    1.2407    2.1477   -0.0008 N   0  0  0  0  0  0  0  0  0  3  0  0
    1.9212    1.0052   -0.0012 C   0  0  0  0  0  0  0  0  0  4  0  0
    1.2562   -0.2156   -0.0006 C   0  0  0  0  0  0  0  0  0  5  0  0
   -0.1318   -0.2270    0.0004 C   0  0  0  0  0  0  0  0  0  6  0  0
   -0.8826   -1.5261    0.0010 C   0  0  0  0  0  0  0  0  0  7  0  0
  6  7  1  0
  6  1  4  0
  5  6  4  0
  4  5  4  0
  3  4  4  0
  2  3  4  0
  1  2  4  0
M  END