cyclohexanol
  SciTegic01221516373D

  7  7  0  0  0  0            999 V2000
    0.3306   -0.9163   -0.4715 C   0  0  0  0  0  0  0  0  0  1  0  0
   -0.7352   -0.1676    0.3572 C   0  0  0  0  0  0  0  0  0  2  0  0
   -0.6370    1.3473    0.0761 C   0  0  0  0  0  0  0  0  0  3  0  0
    0.7685    1.8551    0.4640 C   0  0  0  0  0  0  0  0  0  4  0  0
    1.8344    1.1065   -0.3646 C   0  0  0  0  0  0  0  0  0  5  0  0
    1.7364   -0.4086   -0.0838 C   0  0  0  0  0  0  0  0  0  6  0  0
   -1.6232    2.0400    0.8445 O   0  0  0  0  0  0  0  0  0  7  0  0
  3  7  1  0
  6  1  1  0
  5  6  1  0
  4  5  1  0
  3  4  1  0
  2  3  1  0
  1  2  1  0
M  END