acetic acid, propyl ester
  SciTegic01221516373D

  7  6  0  0  0  0            999 V2000
   -0.1596    2.9432   -1.3071 C   0  0  0  0  0  0  0  0  0  1  0  0
    1.1558    2.5595   -0.6047 C   0  0  0  0  0  0  0  0  0  2  0  0
    0.9037    1.3726    0.3413 C   0  0  0  0  0  0  0  0  0  3  0  0
    0.4197    0.2585   -0.4131 O   0  0  0  0  0  0  0  0  0  4  0  0
    0.1875   -0.8198    0.4370 C   0  0  0  0  0  0  0  0  0  5  0  0
    0.4043   -0.7125    1.6496 O   0  0  0  0  0  0  0  0  0  6  0  0
   -0.3276   -2.1144   -0.1204 C   0  0  0  0  0  0  0  0  0  7  0  0
  5  7  1  0
  5  6  2  0
  4  5  1  0
  3  4  1  0
  2  3  1  0
  1  2  1  0
M  END