1-butanamine
  SciTegic01221516373D

  5  4  0  0  0  0            999 V2000
    0.1475    0.0851   -1.0300 N   0  0  0  0  0  0  0  0  0  1  0  0
    1.4115   -0.2563   -0.3562 C   0  0  0  0  0  0  0  0  0  2  0  0
    1.5087    0.3474    1.0810 C   0  0  0  0  0  0  0  0  0  3  0  0
    0.4885   -0.2718    2.0895 C   0  0  0  0  0  0  0  0  0  4  0  0
   -0.9757    0.0959    1.7632 C   0  0  0  0  0  0  0  0  0  5  0  0
  4  5  1  0
  3  4  1  0
  2  3  1  0
  1  2  1  0
M  END