thiophene
  SciTegic01221516373D

  5  5  0  0  0  0            999 V2000
   -0.4950    1.1878   -0.0003 C   0  0  0  0  0  0  0  0  0  1  0  0
    0.7199    1.8893   -0.0009 C   0  0  0  0  0  0  0  0  0  2  0  0
    1.8371    1.0539   -0.0002 C   0  0  0  0  0  0  0  0  0  3  0  0
    1.2707   -0.4676    0.0011 S   0  0  0  0  0  0  0  0  0  4  0  0
   -0.3302   -0.1974    0.0009 C   0  0  0  0  0  0  0  0  0  5  0  0
  5  1  4  0
  4  5  4  0
  3  4  4  0
  2  3  4  0
  1  2  4  0
M  END