propoxur
  SciTegic01221516373D

 15 15  0  0  0  0            999 V2000
    0.5845    2.4908    0.3633 C   0  0  0  0  0  0  0  0  0  1  0  0
    1.1698    3.7479    0.4039 C   0  0  0  0  0  0  0  0  0  2  0  0
    2.5413    3.8613    0.2521 C   0  0  0  0  0  0  0  0  0  3  0  0
    3.3010    2.7160    0.0626 C   0  0  0  0  0  0  0  0  0  4  0  0
    2.7291    1.4467    0.0194 C   0  0  0  0  0  0  0  0  0  5  0  0
    1.3342    1.3313    0.1738 C   0  0  0  0  0  0  0  0  0  6  0  0
    0.6869    0.0523    0.1386 O   0  0  0  0  0  0  0  0  0  7  0  0
   -0.7380   -0.0544    0.2973 C   0  0  0  0  0  0  0  0  0  8  0  0
   -1.4871    0.9138    0.4700 O   0  0  0  0  0  0  0  0  0  9  0  0
   -1.3073   -1.3270    0.2535 N   0  0  0  0  0  0  0  0  0 10  0  0
   -2.7246   -1.4836    0.4069 C   0  0  0  0  0  0  0  0  0 11  0  0
    3.7133    0.3693   -0.1906 O   0  0  0  0  0  0  0  0  0 12  0  0
    3.3946   -1.0618   -0.2777 C   0  0  0  0  0  0  0  0  0 13  0  0
    2.5816   -1.4738   -1.5326 C   0  0  0  0  0  0  0  0  0 14  0  0
    2.8852   -1.6983    1.0417 C   0  0  0  0  0  0  0  0  0 15  0  0
 13 15  1  0
 13 14  1  0
 12 13  1  0
  5 12  1  0
 10 11  1  0
  8 10  1  0
  8  9  2  0
  7  8  1  0
  6  7  1  0
  6  1  4  0
  5  6  4  0
  4  5  4  0
  3  4  4  0
  2  3  4  0
  1  2  4  0
M  END