aldicarb
  SciTegic01221516373D

 12 11  0  0  0  0            999 V2000
    3.6830    4.8495   -0.4635 C   0  0  0  0  0  0  0  0  0  1  0  0
    2.9323    3.2045   -0.5310 S   0  0  0  0  0  0  0  0  0  2  0  0
    1.2286    3.2940    0.0709 C   0  0  0  0  0  0  0  0  0  3  0  0
    0.3943    4.2665   -0.7820 C   0  0  0  0  0  0  0  0  0  4  0  0
    1.2405    3.7955    1.5261 C   0  0  0  0  0  0  0  0  0  5  0  0
    0.6081    1.9318    0.0367 C   0  0  0  0  0  0  0  0  0  6  0  0
    1.3408    0.8986    0.1535 N   0  0  0  0  0  0  0  0  0  7  0  0
    0.8985   -0.3987    0.1386 O   0  0  0  0  0  0  0  0  0  8  0  0
   -0.5049   -0.6678   -0.0198 C   0  0  0  0  0  0  0  0  0  9  0  0
   -1.3616    0.2159   -0.1468 O   0  0  0  0  0  0  0  0  0 10  0  0
   -0.9237   -1.9990   -0.0309 N   0  0  0  0  0  0  0  0  0 11  0  0
   -2.3151   -2.3114   -0.1867 C   0  0  0  0  0  0  0  0  0 12  0  0
 11 12  1  0
  9 11  1  0
  9 10  2  0
  8  9  1  0
  7  8  1  0
  6  7  2  0
  3  6  1  0
  3  5  1  0
  3  4  1  0
  2  3  1  0
  1  2  1  0
M  END