benzoic acid, 2-methyl-
  SciTegic01221516373D

 10 10  0  0  0  0            999 V2000
    3.7252   -0.1007    0.0004 C   0  0  0  0  0  0  0  0  0  1  0  0
    2.9956   -1.2816    0.0005 C   0  0  0  0  0  0  0  0  0  2  0  0
    1.6072   -1.2347    0.0002 C   0  0  0  0  0  0  0  0  0  3  0  0
    0.9320   -0.0180   -0.0001 C   0  0  0  0  0  0  0  0  0  4  0  0
    1.6704    1.1720   -0.0001 C   0  0  0  0  0  0  0  0  0  5  0  0
    3.0606    1.1190    0.0002 C   0  0  0  0  0  0  0  0  0  6  0  0
    1.0231    2.5338   -0.0004 C   0  0  0  0  0  0  0  0  0  7  0  0
   -0.5623   -0.0738   -0.0003 C   0  0  0  0  0  0  0  0  0  8  0  0
   -1.2701    0.9395   -0.0006 O   0  0  0  0  0  0  0  0  0  9  0  0
   -1.1808   -1.3192   -0.0003 O   0  0  0  0  0  0  0  0  0 10  0  0
  8 10  1  0
  8  9  2  0
  4  8  1  0
  5  7  1  0
  6  1  4  0
  5  6  4  0
  4  5  4  0
  3  4  4  0
  2  3  4  0
  1  2  4  0
M  END