benzoic acid, 2-chloro-
  SciTegic01221516373D

 10 10  0  0  0  0            999 V2000
    0.9476    0.0878   -0.0002 C   0  0  0  0  0  0  0  0  0  1  0  0
    1.6348    1.2971   -0.0008 C   0  0  0  0  0  0  0  0  0  2  0  0
    3.0243    1.3184   -0.0007 C   0  0  0  0  0  0  0  0  0  3  0  0
    3.7347    0.1246    0.0001 C   0  0  0  0  0  0  0  0  0  4  0  0
    3.0525   -1.0861    0.0007 C   0  0  0  0  0  0  0  0  0  5  0  0
    1.6619   -1.1106    0.0005 C   0  0  0  0  0  0  0  0  0  6  0  0
    0.8579   -2.6433    0.0013 Cl  0  0  0  0  0  0  0  0  0  7  0  0
   -0.5284    0.1206   -0.0005 C   0  0  0  0  0  0  0  0  0  8  0  0
   -1.1070    1.2127   -0.0012 O   0  0  0  0  0  0  0  0  0  9  0  0
   -1.2810   -1.0472    0.0001 O   0  0  0  0  0  0  0  0  0 10  0  0
  8 10  1  0
  8  9  2  0
  1  8  1  0
  6  7  1  0
  6  1  4  0
  5  6  4  0
  4  5  4  0
  3  4  4  0
  2  3  4  0
  1  2  4  0
M  END