methanone, diphenyl-
  SciTegic01221516373D

 14 15  0  0  0  0            999 V2000
    2.1981    2.0674    4.4121 C   0  0  0  0  0  0  0  0  0  1  0  0
    1.2982    3.0736    4.0838 C   0  0  0  0  0  0  0  0  0  2  0  0
    0.6543    3.0563    2.8518 C   0  0  0  0  0  0  0  0  0  3  0  0
    0.8989    2.0388    1.9350 C   0  0  0  0  0  0  0  0  0  4  0  0
    1.8028    1.0349    2.2741 C   0  0  0  0  0  0  0  0  0  5  0  0
    2.4500    1.0464    3.5043 C   0  0  0  0  0  0  0  0  0  6  0  0
    0.1582    2.0955    0.6213 C   0  0  0  0  0  0  0  0  0  7  0  0
   -0.6141    3.0462    0.4572 O   0  0  0  0  0  0  0  0  0  8  0  0
    0.2686    1.1044   -0.5114 C   0  0  0  0  0  0  0  0  0  9  0  0
   -0.5040    1.3391   -1.6444 C   0  0  0  0  0  0  0  0  0 10  0  0
   -0.4571    0.4714   -2.7296 C   0  0  0  0  0  0  0  0  0 11  0  0
    0.3680   -0.6457   -2.6913 C   0  0  0  0  0  0  0  0  0 12  0  0
    1.1438   -0.8899   -1.5651 C   0  0  0  0  0  0  0  0  0 13  0  0
    1.0923   -0.0183   -0.4833 C   0  0  0  0  0  0  0  0  0 14  0  0
 14  9  4  0
 13 14  4  0
 12 13  4  0
 11 12  4  0
 10 11  4  0
  9 10  4  0
  7  9  1  0
  7  8  2  0
  4  7  1  0
  6  1  4  0
  5  6  4  0
  4  5  4  0
  3  4  4  0
  2  3  4  0
  1  2  4  0
M  END