1,2-benzenediol
  SciTegic01221516373D

  8  8  0  0  0  0            999 V2000
   -0.7444    0.9502    0.0012 C   0  0  0  0  0  0  0  0  0  1  0  0
   -0.0496    2.1545    0.0005 C   0  0  0  0  0  0  0  0  0  2  0  0
    1.3408    2.1545   -0.0008 C   0  0  0  0  0  0  0  0  0  3  0  0
    2.0362    0.9504   -0.0013 C   0  0  0  0  0  0  0  0  0  4  0  0
    1.3413   -0.2539   -0.0006 C   0  0  0  0  0  0  0  0  0  5  0  0
   -0.0491   -0.2537    0.0007 C   0  0  0  0  0  0  0  0  0  6  0  0
   -0.7448   -1.4577    0.0014 O   0  0  0  0  0  0  0  0  0  7  0  0
   -2.1349    0.9494    0.0025 O   0  0  0  0  0  0  0  0  0  8  0  0
  1  8  1  0
  6  7  1  0
  6  1  4  0
  5  6  4  0
  4  5  4  0
  3  4  4  0
  2  3  4  0
  1  2  4  0
M  END