propanal
  SciTegic01221516373D

  4  3  0  0  0  0            999 V2000
    0.0104   -0.3265   -0.0004 C   0  0  0  0  0  0  0  0  0  1  0  0
    1.2461   -0.2883   -0.0011 O   0  0  0  0  0  0  0  0  0  2  0  0
   -0.7812    0.9499    0.0004 C   0  0  0  0  0  0  0  0  0  3  0  0
    0.1804    2.1530    0.0003 C   0  0  0  0  0  0  0  0  0  4  0  0
  3  4  1  0
  1  3  1  0
  1  2  2  0
M  END