acetic acid ethyl ester
  SciTegic01221516373D

  6  5  0  0  0  0            999 V2000
    1.7334    0.0344    0.3805 C   0  0  0  0  0  0  0  0  0  1  0  0
    0.3015    0.1155   -0.0631 C   0  0  0  0  0  0  0  0  0  2  0  0
   -0.1309    1.1754   -0.5327 O   0  0  0  0  0  0  0  0  0  3  0  0
   -0.5187   -1.0242    0.0345 O   0  0  0  0  0  0  0  0  0  4  0  0
   -1.8632   -0.7715   -0.4214 C   0  0  0  0  0  0  0  0  0  5  0  0
   -2.6392    0.0950    0.6019 C   0  0  0  0  0  0  0  0  0  6  0  0
  5  6  1  0
  4  5  1  0
  2  4  1  0
  2  3  2  0
  1  2  1  0
M  END