hexanoic acid
  SciTegic01221516373D

  8  7  0  0  0  0            999 V2000
   -0.4254    1.9807    2.0739 C   0  0  0  0  0  0  0  0  0  1  0  0
   -0.2713    2.3834    0.5911 C   0  0  0  0  0  0  0  0  0  2  0  0
    1.1990    2.1925    0.1460 C   0  0  0  0  0  0  0  0  0  3  0  0
    1.7108    0.7033    0.1536 C   0  0  0  0  0  0  0  0  0  4  0  0
    1.1463   -0.1817   -1.0171 C   0  0  0  0  0  0  0  0  0  5  0  0
   -0.2613   -0.6993   -0.8099 C   0  0  0  0  0  0  0  0  0  6  0  0
   -0.8155   -0.5993    0.2891 O   0  0  0  0  0  0  0  0  0  7  0  0
   -0.9078   -1.3644   -1.8462 O   0  0  0  0  0  0  0  0  0  8  0  0
  6  8  1  0
  6  7  2  0
  5  6  1  0
  4  5  1  0
  3  4  1  0
  2  3  1  0
  1  2  1  0
M  END