aldrin
  SciTegic01221516373D

 22 25  0  0  0  0            999 V2000
   -1.1946   -2.0528    0.0949 C   0  0  0  0  0  0  0  0  0  1  0  0
   -0.0525   -1.9166   -0.5256 C   0  0  0  0  0  0  0  0  0  2  0  0
   -0.0302   -0.5827   -1.1622 C   0  0  1  0  0  0  0  0  0  3  0  0
   -1.0508   -0.7437   -2.4217 C   0  0  1  0  0  0  0  0  0  4  0  0
   -0.6692   -1.5812   -3.0209 H   0  0  0  0  0  0  0  0  0  5  0  0
   -2.4528   -0.9082   -1.6581 C   0  0  1  0  0  0  0  0  0  6  0  0
   -3.0092   -1.8492   -1.7630 H   0  0  0  0  0  0  0  0  0  7  0  0
   -1.9757   -0.8153   -0.1042 C   0  0  2  0  0  0  0  0  0  8  0  0
   -0.7751    0.2271   -0.0112 C   0  0  0  0  0  0  0  0  0  9  0  0
    0.0783    0.0890    1.5281 Cl  0  0  0  0  0  0  0  0  0 10  0  0
   -1.0888    1.9578   -0.2068 Cl  0  0  0  0  0  0  0  0  0 11  0  0
   -3.3080   -0.6784    1.0445 Cl  0  0  0  0  0  0  0  0  0 12  0  0
   -3.3157    0.2106   -2.3947 C   0  0  2  0  0  0  0  0  0 13  0  0
   -4.2712    0.4247   -1.8970 H   0  0  0  0  0  0  0  0  0 14  0  0
   -3.5162   -0.2869   -3.7839 C   0  0  0  0  0  0  0  0  0 15  0  0
   -2.3664   -0.1547   -4.4107 C   0  0  0  0  0  0  0  0  0 16  0  0
   -1.4057    0.4306   -3.4370 C   0  0  2  0  0  0  0  0  0 17  0  0
   -0.5259    0.8571   -3.9376 H   0  0  0  0  0  0  0  0  0 18  0  0
   -2.3561    1.3907   -2.6810 C   0  0  0  0  0  0  0  0  0 19  0  0
    1.6015   -0.0956   -1.6243 Cl  0  0  0  0  0  0  0  0  0 20  0  0
    1.2149   -3.0867   -0.5835 Cl  0  0  0  0  0  0  0  0  0 21  0  0
   -1.6986   -3.4335    0.9996 Cl  0  0  0  0  0  0  0  0  0 22  0  0
  1 22  1  0
  2 21  1  0
  3 20  1  0
 19 13  1  0
 17 19  1  0
 17  4  1  0
 17 18  1  0
 16 17  1  0
 15 16  2  0
 13 15  1  0
 13 14  1  0
  6 13  1  0
  8 12  1  0
  9 11  1  0
  9 10  1  0
  9  3  1  0
  8  9  1  0
  8  1  1  0
  6  8  1  0
  6  7  1  0
  4  6  1  0
  4  5  1  0
  3  4  1  0
  2  3  1  0
  1  2  2  0
M  END