delta-hexachlorocyclohexane
  SciTegic01221516373D

 18 18  0  0  0  0            999 V2000
    0.3712   -0.7446    0.7140 C   0  0  0  0  0  0  0  0  0  1  0  0
   -0.6828   -0.4386    0.6555 H   0  0  0  0  0  0  0  0  0  2  0  0
    0.8713   -0.1597    1.8695 C   0  0  0  0  0  0  0  0  0  3  0  0
    1.9592   -0.3258    1.8091 H   0  0  0  0  0  0  0  0  0  4  0  0
    0.3998    1.4132    1.7219 C   0  0  0  0  0  0  0  0  0  5  0  0
    1.0536    1.9138    2.4492 H   0  0  0  0  0  0  0  0  0  6  0  0
    0.5030    2.0944    0.2309 C   0  0  0  0  0  0  0  0  0  7  0  0
    0.4790    3.1845    0.3657 H   0  0  0  0  0  0  0  0  0  8  0  0
    1.7248    1.5178   -0.2092 C   0  0  0  0  0  0  0  0  0  9  0  0
    2.4151    1.7090    0.6285 H   0  0  0  0  0  0  0  0  0 10  0  0
    1.3689   -0.0896   -0.4210 C   0  0  0  0  0  0  0  0  0 11  0  0
    2.3635   -0.5559   -0.4211 H   0  0  0  0  0  0  0  0  0 12  0  0
    0.5824   -0.4894   -1.9636 Cl  0  0  0  0  0  0  0  0  0 13  0  0
    2.4286    2.1349   -1.7057 Cl  0  0  0  0  0  0  0  0  0 14  0  0
   -0.7815    1.6750   -0.9223 Cl  0  0  0  0  0  0  0  0  0 15  0  0
   -1.2884    1.6785    2.1684 Cl  0  0  0  0  0  0  0  0  0 16  0  0
    0.2621   -0.7565    3.4149 Cl  0  0  0  0  0  0  0  0  0 17  0  0
    0.4938   -2.5005    0.5846 Cl  0  0  0  0  0  0  0  0  0 18  0  0
  1 18  1  0
  3 17  1  0
  5 16  1  0
  7 15  1  0
  9 14  1  0
 11 13  1  0
 11  1  1  0
 11 12  1  0
  9 11  1  0
  9 10  1  0
  7  9  1  0
  7  8  1  0
  5  7  1  0
  5  6  1  0
  3  5  1  0
  3  4  1  0
  1  3  1  0
  1  2  1  0
M  END