diazinon
  SciTegic01221516373D

 19 19  0  0  0  0            999 V2000
    4.6855    2.6773   -2.0137 C   0  0  0  0  0  0  0  0  0  1  0  0
    3.3297    2.4574   -1.4114 C   0  0  0  0  0  0  0  0  0  2  0  0
    2.9229    1.1798   -1.0544 C   0  0  0  0  0  0  0  0  0  3  0  0
    1.6600    1.0257   -0.5016 C   0  0  0  0  0  0  0  0  0  4  0  0
    0.8907    2.0929   -0.3304 N   0  0  0  0  0  0  0  0  0  5  0  0
    1.3084    3.3037   -0.6819 C   0  0  0  0  0  0  0  0  0  6  0  0
    2.5121    3.4841   -1.2155 N   0  0  0  0  0  0  0  0  0  7  0  0
    0.4069    4.4809   -0.4701 C   0  0  0  0  0  0  0  0  0  8  0  0
    1.1926    5.7959   -0.3190 C   0  0  0  0  0  0  0  0  0  9  0  0
   -0.6164    4.2320    0.6532 C   0  0  0  0  0  0  0  0  0 10  0  0
    1.2110   -0.2496   -0.1183 O   0  0  0  0  0  0  0  0  0 11  0  0
   -0.2411   -0.1908    0.4612 P   0  0  0  0  0  0  0  0  0 12  0  0
   -1.2575    0.4637   -0.7494 S   0  0  0  0  0  0  0  0  0 13  0  0
   -0.3089    0.7171    1.7626 O   0  0  0  0  0  0  0  0  0 14  0  0
    0.3876    0.1613    2.9318 C   0  0  0  0  0  0  0  0  0 15  0  0
    1.9232    0.1573    2.8003 C   0  0  0  0  0  0  0  0  0 16  0  0
   -0.7239   -1.6580    0.7538 O   0  0  0  0  0  0  0  0  0 17  0  0
   -2.1770   -1.7878    0.8013 C   0  0  0  0  0  0  0  0  0 18  0  0
   -2.8239   -1.0682    2.0042 C   0  0  0  0  0  0  0  0  0 19  0  0
 18 19  1  0
 17 18  1  0
 12 17  1  0
 15 16  1  0
 14 15  1  0
 12 14  1  0
 12 13  2  0
 11 12  1  0
  4 11  1  0
  8 10  1  0
  8  9  1  0
  6  8  1  0
  7  2  4  0
  6  7  4  0
  5  6  4  0
  4  5  4  0
  3  4  4  0
  2  3  4  0
  1  2  1  0
M  END