benzene, 1,2,3-trimethyl-
  SciTegic01221516373D

  9  9  0  0  0  0            999 V2000
   -0.7918    1.0380   -0.0006 C   0  0  0  0  0  0  0  0  0  1  0  0
   -0.0953    2.2413   -0.0004 C   0  0  0  0  0  0  0  0  0  2  0  0
    1.2948    2.2412   -0.0001 C   0  0  0  0  0  0  0  0  0  3  0  0
    1.9888    1.0369    0.0000 C   0  0  0  0  0  0  0  0  0  4  0  0
    1.2941   -0.1674   -0.0002 C   0  0  0  0  0  0  0  0  0  5  0  0
   -0.0977   -0.1684   -0.0005 C   0  0  0  0  0  0  0  0  0  6  0  0
   -0.8516   -1.4729   -0.0007 C   0  0  0  0  0  0  0  0  0  7  0  0
    2.0535   -1.4650   -0.0001 C   0  0  0  0  0  0  0  0  0  8  0  0
   -2.2953    1.0480   -0.0010 C   0  0  0  0  0  0  0  0  0  9  0  0
  1  9  1  0
  5  8  1  0
  6  7  1  0
  6  1  4  0
  5  6  4  0
  4  5  4  0
  3  4  4  0
  2  3  4  0
  1  2  4  0
M  END