phenol, 2-methyl-4,6-dinitro-
  SciTegic01221516373D

 14 14  0  0  0  0            999 V2000
   -0.8515    0.8101    0.1849 C   0  0  0  0  0  0  0  0  0  1  0  0
   -0.0950    1.9753    0.2172 C   0  0  0  0  0  0  0  0  0  2  0  0
    1.2903    1.9130    0.1167 C   0  0  0  0  0  0  0  0  0  3  0  0
    1.9190    0.6771   -0.0168 C   0  0  0  0  0  0  0  0  0  4  0  0
    1.1602   -0.4876   -0.0489 C   0  0  0  0  0  0  0  0  0  5  0  0
   -0.2243   -0.4225    0.0518 C   0  0  0  0  0  0  0  0  0  6  0  0
    1.8381   -1.8181   -0.1926 C   0  0  0  0  0  0  0  0  0  7  0  0
    3.3036    0.5901   -0.1191 O   0  0  0  0  0  0  0  0  0  8  0  0
    2.0302    3.1061    0.1521 N   0  3  0  0  0  0  0  0  0  9  0  0
    3.3510    3.0910    0.0594 O   0  0  0  0  0  0  0  0  0 10  0  0
    1.3971    4.2619    0.2800 O   0  5  0  0  0  0  0  0  0 11  0  0
   -2.2392    0.8778    0.2861 N   0  3  0  0  0  0  0  0  0 12  0  0
   -2.8365    2.0528    0.4129 O   0  0  0  0  0  0  0  0  0 13  0  0
   -2.9595   -0.2329    0.2552 O   0  5  0  0  0  0  0  0  0 14  0  0
 12 14  1  0
 12 13  2  0
  1 12  1  0
  9 11  1  0
  9 10  2  0
  3  9  1  0
  4  8  1  0
  5  7  1  0
  6  1  4  0
  5  6  4  0
  4  5  4  0
  3  4  4  0
  2  3  4  0
  1  2  4  0
M CHG   4   9   1  11  -1  12   1  14  -1
M  END