2-hexanone
  SciTegic01221516373D

  7  6  0  0  0  0            999 V2000
    0.7558    0.0175    0.3713 C   0  0  0  0  0  0  0  0  0  1  0  0
    1.8713    0.0297   -0.1607 O   0  0  0  0  0  0  0  0  0  2  0  0
    0.4683    0.9933    1.4913 C   0  0  0  0  0  0  0  0  0  3  0  0
   -0.2385   -1.0747   -0.0199 C   0  0  0  0  0  0  0  0  0  4  0  0
   -1.6888   -0.8321    0.4977 C   0  0  0  0  0  0  0  0  0  5  0  0
   -2.4004    0.2983   -0.3018 C   0  0  0  0  0  0  0  0  0  6  0  0
   -2.5042   -0.0969   -1.7889 C   0  0  0  0  0  0  0  0  0  7  0  0
  6  7  1  0
  5  6  1  0
  4  5  1  0
  1  4  1  0
  1  3  1  0
  1  2  2  0
M  END