acetic acid, 2-propenyl ester
  SciTegic01221516373D

  7  6  0  0  0  0            999 V2000
    0.5215    2.3308    1.5534 C   0  0  0  0  0  0  0  0  0  1  0  0
    1.0411    2.4260    0.3289 C   0  0  0  0  0  0  0  0  0  2  0  0
    1.5770    1.2074   -0.4057 C   0  0  0  0  0  0  0  0  0  3  0  0
    1.1138   -0.0336    0.1698 O   0  0  0  0  0  0  0  0  0  4  0  0
   -0.2080   -0.3220   -0.2195 C   0  0  0  0  0  0  0  0  0  5  0  0
   -0.8196    0.4420   -0.9757 O   0  0  0  0  0  0  0  0  0  6  0  0
   -0.8757   -1.5705    0.2783 C   0  0  0  0  0  0  0  0  0  7  0  0
  5  7  1  0
  5  6  2  0
  4  5  1  0
  3  4  1  0
  2  3  1  0
  1  2  2  0
M  END