3-butenoic acid
  SciTegic01221516373D

  6  5  0  0  0  0            999 V2000
    1.8420    1.2852    0.0122 C   0  0  0  0  0  0  0  0  0  1  0  0
    1.1224    2.4058   -0.0248 C   0  0  0  0  0  0  0  0  0  2  0  0
    1.2372   -0.1240    0.0064 C   0  0  0  0  0  0  0  0  0  3  0  0
   -0.2916   -0.2201    0.0021 C   0  0  0  0  0  0  0  0  0  4  0  0
   -1.0193    0.7788    0.0187 O   0  0  0  0  0  0  0  0  0  5  0  0
   -0.8831   -1.4790   -0.0151 O   0  0  0  0  0  0  0  0  0  6  0  0
  4  6  1  0
  4  5  2  0
  3  4  1  0
  1  3  1  0
  1  2  2  0
M  END