benzene, 1,2,3,4-tetrachloro-
  SciTegic01221516373D

 10 10  0  0  0  0            999 V2000
   -1.0586    0.9629   -0.0001 C   0  0  0  0  0  0  0  0  0  1  0  0
   -0.3634    2.1670   -0.0001 C   0  0  0  0  0  0  0  0  0  2  0  0
    1.0269    2.1666   -0.0003 C   0  0  0  0  0  0  0  0  0  3  0  0
    1.7220    0.9627   -0.0005 C   0  0  0  0  0  0  0  0  0  4  0  0
    1.0269   -0.2411   -0.0005 C   0  0  0  0  0  0  0  0  0  5  0  0
   -0.3632   -0.2411   -0.0002 C   0  0  0  0  0  0  0  0  0  6  0  0
   -1.2261   -1.7377   -0.0002 Cl  0  0  0  0  0  0  0  0  0  7  0  0
    1.8906   -1.7370   -0.0007 Cl  0  0  0  0  0  0  0  0  0  8  0  0
    3.4493    0.9626   -0.0008 Cl  0  0  0  0  0  0  0  0  0  9  0  0
    1.8917    3.6621   -0.0003 Cl  0  0  0  0  0  0  0  0  0 10  0  0
  3 10  1  0
  4  9  1  0
  5  8  1  0
  6  7  1  0
  6  1  4  0
  5  6  4  0
  4  5  4  0
  3  4  4  0
  2  3  4  0
  1  2  4  0
M  END