propane, 2-methoxy-2-methyl-
  SciTegic01221516373D

  6  5  0  0  0  0            999 V2000
   -0.2678    0.5513   -0.5530 C   0  0  0  0  0  0  0  0  0  1  0  0
    0.7685   -0.3972   -0.2475 O   0  0  0  0  0  0  0  0  0  2  0  0
    1.3706   -0.1126    1.0329 C   0  0  0  0  0  0  0  0  0  3  0  0
    0.3065   -0.1918    2.1492 C   0  0  0  0  0  0  0  0  0  4  0  0
    2.0016    1.2970    1.0212 C   0  0  0  0  0  0  0  0  0  5  0  0
    2.4705   -1.1530    1.3125 C   0  0  0  0  0  0  0  0  0  6  0  0
  3  6  1  0
  3  5  1  0
  3  4  1  0
  2  3  1  0
  1  2  1  0
M  END