dicamba
  SciTegic01221516373D

 13 13  0  0  0  0            999 V2000
    0.8751    0.1673   -0.0263 C   0  0  0  0  0  0  0  0  0  1  0  0
    1.6345    1.3499   -0.0822 C   0  0  0  0  0  0  0  0  0  2  0  0
    3.0208    1.3359   -0.0602 C   0  0  0  0  0  0  0  0  0  3  0  0
    3.7026    0.1400    0.0184 C   0  0  0  0  0  0  0  0  0  4  0  0
    2.9806   -1.0377    0.0746 C   0  0  0  0  0  0  0  0  0  5  0  0
    1.5879   -1.0641    0.0549 C   0  0  0  0  0  0  0  0  0  6  0  0
    1.1408   -2.4681    0.1284 O   0  0  0  0  0  0  0  0  0  7  0  0
   -0.2033   -2.8978    0.1330 C   0  0  0  0  0  0  0  0  0  8  0  0
    3.8372   -2.5345    0.1732 Cl  0  0  0  0  0  0  0  0  0  9  0  0
    0.9035    2.9208   -0.1830 Cl  0  0  0  0  0  0  0  0  0 10  0  0
   -0.6720    0.3865   -0.0625 C   0  0  0  0  0  0  0  0  0 11  0  0
   -1.1282    1.5289   -0.1337 O   0  0  0  0  0  0  0  0  0 12  0  0
   -1.6065   -0.6086   -0.0216 O   0  0  0  0  0  0  0  0  0 13  0  0
 11 13  1  0
 11 12  2  0
  1 11  1  0
  2 10  1  0
  5  9  1  0
  7  8  1  0
  6  7  1  0
  6  1  4  0
  5  6  4  0
  4  5  4  0
  3  4  4  0
  2  3  4  0
  1  2  4  0
M  END