3 chlorobiphenyl  (PCB 3)
  SciTegic01221516373D

 13 14  0  0  0  0            999 V2000
   -0.5470    1.0565    2.5822 C   0  0  0  0  0  0  0  0  0  1  0  0
   -0.2010    1.8544    1.4975 C   0  0  0  0  0  0  0  0  0  2  0  0
   -0.5413    3.2024    1.4891 C   0  0  0  0  0  0  0  0  0  3  0  0
   -1.2277    3.7526    2.5657 C   0  0  0  0  0  0  0  0  0  4  0  0
   -1.5737    2.9547    3.6504 C   0  0  0  0  0  0  0  0  0  5  0  0
   -1.2334    1.6066    3.6588 C   0  0  0  0  0  0  0  0  0  6  0  0
    0.5203    1.2763    0.3660 C   0  0  0  0  0  0  0  0  0  7  0  0
    0.8661    2.0746   -0.7184 C   0  0  0  0  0  0  0  0  0  8  0  0
    1.5524    1.5247   -1.7950 C   0  0  0  0  0  0  0  0  0  9  0  0
    1.8930    0.1767   -1.7873 C   0  0  0  0  0  0  0  0  0 10  0  0
    1.5472   -0.6215   -0.7028 C   0  0  0  0  0  0  0  0  0 11  0  0
    0.8608   -0.0716    0.3739 C   0  0  0  0  0  0  0  0  0 12  0  0
    1.9821    2.5167   -3.1425 Cl  0  0  0  0  0  0  0  0  0 13  0  0
  9 13  1  0
 12  7  4  0
 11 12  4  0
 10 11  4  0
  9 10  4  0
  8  9  4  0
  7  8  4  0
  2  7  1  0
  6  1  4  0
  5  6  4  0
  4  5  4  0
  3  4  4  0
  2  3  4  0
  1  2  4  0
M  END