diallate
  SciTegic01221516373D

 15 14  0  0  0  0            999 V2000
    1.7350   -4.0782    1.3337 C   0  0  0  0  0  0  0  0  0  1  0  0
    2.6494   -2.8318    1.2447 C   0  0  0  0  0  0  0  0  0  2  0  0
    2.4052   -1.9308    2.4816 C   0  0  0  0  0  0  0  0  0  3  0  0
    2.4252   -2.0927   -0.0068 N   0  0  0  0  0  0  0  0  0  4  0  0
    3.5511   -1.9501   -0.9483 C   0  0  0  0  0  0  0  0  0  5  0  0
    4.8504   -2.6058   -0.4202 C   0  0  0  0  0  0  0  0  0  6  0  0
    3.8274   -0.4689   -1.3054 C   0  0  0  0  0  0  0  0  0  7  0  0
    1.1326   -1.5231   -0.3484 C   0  0  0  0  0  0  0  0  0  8  0  0
    0.9870   -0.9316   -1.4244 O   0  0  0  0  0  0  0  0  0  9  0  0
   -0.2881   -1.6325    0.7291 S   0  0  0  0  0  0  0  0  0 10  0  0
   -1.6193   -0.5862    0.0902 C   0  0  0  0  0  0  0  0  0 11  0  0
   -1.2254    0.8653    0.1738 C   0  0  0  0  0  0  0  0  0 12  0  0
   -2.0336    1.8001   -0.3197 C   0  0  0  0  0  0  0  0  0 13  0  0
   -1.5859    3.4659   -0.2161 Cl  0  0  0  0  0  0  0  0  0 14  0  0
    0.2635    1.3293    0.9227 Cl  0  0  0  0  0  0  0  0  0 15  0  0
 12 15  1  0
 13 14  1  0
 12 13  2  0
 11 12  1  0
 10 11  1  0
  8 10  1  0
  8  9  2  0
  4  8  1  0
  5  7  1  0
  5  6  1  0
  4  5  1  0
  2  4  1  0
  2  3  1  0
  1  2  1  0
M  END