2-methoxytetrachlorophenol
  SciTegic01221516373D

 13 13  0  0  0  0            999 V2000
   -0.2998    2.0148    1.7679 O   0  0  0  0  0  0  0  0  0  1  0  0
    0.4840    1.2695    0.8842 C   0  0  0  0  0  0  0  0  0  2  0  0
    1.7802    1.7275    0.6696 C   0  0  0  0  0  0  0  0  0  3  0  0
    2.6381    1.0568   -0.1906 C   0  0  0  0  0  0  0  0  0  4  0  0
    2.2002   -0.0839   -0.8453 C   0  0  0  0  0  0  0  0  0  5  0  0
    3.2594   -0.9266   -1.9182 Cl  0  0  0  0  0  0  0  0  0  6  0  0
    0.9081   -0.5476   -0.6366 C   0  0  0  0  0  0  0  0  0  7  0  0
    0.0348    0.1133    0.2229 C   0  0  0  0  0  0  0  0  0  8  0  0
   -1.2801   -0.4859    0.3414 O   0  0  0  0  0  0  0  0  0  9  0  0
   -2.2394    0.1338    1.2073 C   0  0  0  0  0  0  0  0  0 10  0  0
    0.3742   -1.9698   -1.4580 Cl  0  0  0  0  0  0  0  0  0 11  0  0
    4.2437    1.6406   -0.4444 Cl  0  0  0  0  0  0  0  0  0 12  0  0
    2.3282    3.1485    1.4841 Cl  0  0  0  0  0  0  0  0  0 13  0  0
  3 13  1  0
  4 12  1  0
  7 11  1  0
  9 10  1  0
  8  9  1  0
  8  2  4  0
  7  8  4  0
  5  7  4  0
  5  6  1  0
  4  5  4  0
  3  4  4  0
  2  3  4  0
  1  2  1  0
M  END