1-(2-chlorophenyl)-1-(4-chlorophenyl)- 2,2-dichloroethylene
  SciTegic01221516373D

 18 19  0  0  0  0            999 V2000
   -1.0904    2.8341    3.1162 Cl  0  0  0  0  0  0  0  0  0  1  0  0
   -0.2485    1.5343    2.3237 C   0  0  0  0  0  0  0  0  0  2  0  0
   -0.0680    1.4471    0.9739 C   0  0  0  0  0  0  0  0  0  3  0  0
   -0.5715    2.5408   -0.0134 C   0  0  0  0  0  0  0  0  0  4  0  0
   -1.1342    3.7370    0.4235 C   0  0  0  0  0  0  0  0  0  5  0  0
   -1.5881    4.6983   -0.4723 C   0  0  0  0  0  0  0  0  0  6  0  0
   -1.4886    4.4742   -1.8384 C   0  0  0  0  0  0  0  0  0  7  0  0
   -0.9360    3.2867   -2.2974 C   0  0  0  0  0  0  0  0  0  8  0  0
   -0.4863    2.3348   -1.3898 C   0  0  0  0  0  0  0  0  0  9  0  0
   -2.0502    5.6635   -2.9589 Cl  0  0  0  0  0  0  0  0  0 10  0  0
    0.6886    0.2390    0.3990 C   0  0  0  0  0  0  0  0  0 11  0  0
    1.7469    0.4549   -0.4837 C   0  0  0  0  0  0  0  0  0 12  0  0
    2.4653   -0.6029   -1.0264 C   0  0  0  0  0  0  0  0  0 13  0  0
    2.1290   -1.9072   -0.6942 C   0  0  0  0  0  0  0  0  0 14  0  0
    1.0700   -2.1405    0.1726 C   0  0  0  0  0  0  0  0  0 15  0  0
    0.3523   -1.0821    0.7200 C   0  0  0  0  0  0  0  0  0 16  0  0
   -0.9896   -1.4653    1.7544 Cl  0  0  0  0  0  0  0  0  0 17  0  0
    0.4359    0.3446    3.3885 Cl  0  0  0  0  0  0  0  0  0 18  0  0
  2 18  1  0
 16 17  1  0
 16 11  4  0
 15 16  4  0
 14 15  4  0
 13 14  4  0
 12 13  4  0
 11 12  4  0
  3 11  1  0
  7 10  1  0
  9  4  4  0
  8  9  4  0
  7  8  4  0
  6  7  4  0
  5  6  4  0
  4  5  4  0
  3  4  1  0
  2  3  2  0
  1  2  1  0
M  END