mecoprop 
  SciTegic01221516373D

 15 15  0  0  0  0            999 V2000
   -3.1670    1.7849    3.7437 C   0  0  0  0  0  0  0  0  0  1  0  0
   -2.8437    1.1701    2.5424 C   0  0  0  0  0  0  0  0  0  2  0  0
   -1.6053    0.5730    2.3141 C   0  0  0  0  0  0  0  0  0  3  0  0
   -0.6524    0.6183    3.3595 C   0  0  0  0  0  0  0  0  0  4  0  0
   -0.9867    1.2391    4.5603 C   0  0  0  0  0  0  0  0  0  5  0  0
   -2.2307    1.8171    4.7624 C   0  0  0  0  0  0  0  0  0  6  0  0
   -2.6054    2.5760    6.2686 Cl  0  0  0  0  0  0  0  0  0  7  0  0
    0.7597    0.0686    3.3220 C   0  0  0  0  0  0  0  0  0  8  0  0
   -1.5174   -0.0109    0.9480 O   0  0  0  0  0  0  0  0  0  9  0  0
   -0.4178   -0.8087    0.4160 C   0  0  1  0  0  0  0  0  0 10  0  0
    0.5583   -0.3264    0.5495 H   0  0  0  0  0  0  0  0  0 11  0  0
   -0.3648   -2.2175    1.0665 C   0  0  0  0  0  0  0  0  0 12  0  0
   -0.6420   -1.0339   -1.0478 C   0  0  0  0  0  0  0  0  0 13  0  0
   -1.7198   -0.7166   -1.5628 O   0  0  0  0  0  0  0  0  0 14  0  0
    0.3620   -1.6005   -1.8258 O   0  0  0  0  0  0  0  0  0 15  0  0
 13 15  1  0
 13 14  2  0
 10 13  1  0
 10 12  1  0
 10 11  1  0
  9 10  1  0
  3  9  1  0
  4  8  1  0
  6  7  1  0
  6  1  4  0
  5  6  4  0
  4  5  4  0
  3  4  4  0
  2  3  4  0
  1  2  4  0
M  END