2,3,4-trichlorobiphenyl  (PCB 21)
  SciTegic01221516373D

 15 16  0  0  0  0            999 V2000
   -2.4297    4.0526   -0.4500 C   0  0  0  0  0  0  0  0  0  1  0  0
   -1.2342    3.4080   -0.1537 C   0  0  0  0  0  0  0  0  0  2  0  0
   -1.1359    2.0226   -0.2314 C   0  0  0  0  0  0  0  0  0  3  0  0
   -2.2560    1.2896   -0.6113 C   0  0  0  0  0  0  0  0  0  4  0  0
   -3.4545    1.9282   -0.9088 C   0  0  0  0  0  0  0  0  0  5  0  0
   -3.5429    3.3124   -0.8284 C   0  0  0  0  0  0  0  0  0  6  0  0
    0.1264    1.2704    0.0760 C   0  0  0  0  0  0  0  0  0  7  0  0
    1.3341    1.8635    0.4705 C   0  0  0  0  0  0  0  0  0  8  0  0
    2.4417    1.0621    0.7293 C   0  0  0  0  0  0  0  0  0  9  0  0
    2.3658   -0.3185    0.6017 C   0  0  0  0  0  0  0  0  0 10  0  0
    1.1733   -0.9100    0.2117 C   0  0  0  0  0  0  0  0  0 11  0  0
    0.0649   -0.1148   -0.0478 C   0  0  0  0  0  0  0  0  0 12  0  0
    3.7527   -1.2955    0.9278 Cl  0  0  0  0  0  0  0  0  0 13  0  0
    3.9288    1.7937    1.2152 Cl  0  0  0  0  0  0  0  0  0 14  0  0
    1.5452    3.5770    0.6627 Cl  0  0  0  0  0  0  0  0  0 15  0  0
  8 15  1  0
  9 14  1  0
 10 13  1  0
 12  7  4  0
 11 12  4  0
 10 11  4  0
  9 10  4  0
  8  9  4  0
  7  8  4  0
  3  7  1  0
  6  1  4  0
  5  6  4  0
  4  5  4  0
  3  4  4  0
  2  3  4  0
  1  2  4  0
M  END