2,7-dichlorodibenzo-p-dioxin
  SciTegic01221516373D

 15 17  0  0  0  0            999 V2000
   -2.2427    4.4707   -0.0619 C   0  0  0  0  0  0  0  0  0  1  0  0
   -1.2264    3.8479   -0.7776 C   0  0  0  0  0  0  0  0  0  2  0  0
   -0.7540    2.6047   -0.3732 C   0  0  0  0  0  0  0  0  0  3  0  0
   -1.2975    1.9844    0.7465 C   0  0  0  0  0  0  0  0  0  4  0  0
   -2.3137    2.6071    1.4621 C   0  0  0  0  0  0  0  0  0  5  0  0
   -2.7861    3.8505    1.0576 C   0  0  0  0  0  0  0  0  0  6  0  0
   -0.8349    0.7690    1.1409 O   0  0  0  0  0  0  0  0  0  7  0  0
    0.1583    0.1594    0.4422 C   0  0  0  0  0  0  0  0  0  8  0  0
    0.7018    0.7798   -0.6775 C   0  0  0  0  0  0  0  0  0  9  0  0
    0.2393    1.9950   -1.0719 O   0  0  0  0  0  0  0  0  0 10  0  0
    1.7179    0.1571   -1.3931 C   0  0  0  0  0  0  0  0  0 11  0  0
    2.1903   -1.0863   -0.9885 C   0  0  0  0  0  0  0  0  0 12  0  0
    1.6469   -1.7066    0.1310 C   0  0  0  0  0  0  0  0  0 13  0  0
    0.6307   -1.0838    0.8467 C   0  0  0  0  0  0  0  0  0 14  0  0
    3.4532   -1.8610   -1.8773 Cl  0  0  0  0  0  0  0  0  0 15  0  0
 12 15  1  0
 14  8  4  0
 13 14  4  0
 12 13  4  0
 11 12  4  0
  9 11  4  0
 10  3  1  0
  9 10  1  0
  8  9  4  0
  7  8  1  0
  4  7  1  0
  6  1  4  0
  5  6  4  0
  4  5  4  0
  3  4  4  0
  2  3  4  0
  1  2  4  0
M  END