64175.out.mol
  Mrv0541 03111415023D          

  9  8  0  0  0  0            999 V2000
    0.0000    0.0000    0.0000 C   0  0  1  0  0  0  0  0  0  0  0  0
    1.5116    0.0000    0.0000 C   0  0  0  0  0  0  0  0  0  0  0  0
   -0.4231    1.3551    0.0000 O   0  0  0  0  0  0  0  0  0  0  0  0
   -0.3969   -0.5217   -0.9126 H   0  0  0  0  0  0  0  0  0  0  0  0
   -0.3968   -0.5217    0.9127 H   0  0  0  0  0  0  0  0  0  0  0  0
    1.8990    0.5270   -0.9043 H   0  0  0  0  0  0  0  0  0  0  0  0
    1.8990    0.5270    0.9044 H   0  0  0  0  0  0  0  0  0  0  0  0
    1.8841   -1.0514    0.0005 H   0  0  0  0  0  0  0  0  0  0  0  0
   -1.3866    1.3433    0.0004 H   0  0  0  0  0  0  0  0  0  0  0  0
  1  2  1  0  0  0  0
  1  3  1  0  0  0  0
  1  4  1  0  0  0  0
  1  5  1  0  0  0  0
  2  6  1  0  0  0  0
  2  7  1  0  0  0  0
  2  8  1  0  0  0  0
  3  9  1  0  0  0  0
M  END