67641.out.mol
  Mrv0541 03111415023D          

 10  9  0  0  0  0            999 V2000
    0.0000    0.0000    0.0000 C   0  0  0  0  0  0  0  0  0  0  0  0
    1.4951    0.0000    0.0000 C   0  0  0  0  0  0  0  0  0  0  0  0
   -0.6428    1.3499    0.0000 C   0  0  0  0  0  0  0  0  0  0  0  0
   -0.6595   -1.0445   -0.0005 O   0  0  0  0  0  0  0  0  0  0  0  0
    1.8720    0.5315   -0.9074 H   0  0  0  0  0  0  0  0  0  0  0  0
    1.8720    0.5320    0.9071 H   0  0  0  0  0  0  0  0  0  0  0  0
    1.8936   -1.0435    0.0005 H   0  0  0  0  0  0  0  0  0  0  0  0
   -0.3249    1.9186   -0.9075 H   0  0  0  0  0  0  0  0  0  0  0  0
   -1.7562    1.2611    0.0005 H   0  0  0  0  0  0  0  0  0  0  0  0
   -0.3243    1.9190    0.9070 H   0  0  0  0  0  0  0  0  0  0  0  0
  1  2  1  0  0  0  0
  1  3  1  0  0  0  0
  1  4  2  0  0  0  0
  2  5  1  0  0  0  0
  2  6  1  0  0  0  0
  2  7  1  0  0  0  0
  3  8  1  0  0  0  0
  3  9  1  0  0  0  0
  3 10  1  0  0  0  0
M  END