68122.out.mol
  Mrv0541 03111415023D          

 12 11  0  0  0  0            999 V2000
    0.0000    0.0000    0.0000 N   0  0  0  0  0  0  0  0  0  0  0  0
    1.3799    0.0000    0.0000 C   0  0  0  0  0  0  0  0  0  0  0  0
   -0.7566    1.2190    0.0000 C   0  0  0  0  0  0  0  0  0  0  0  0
   -0.7439   -1.2242   -0.0005 C   0  0  0  0  0  0  0  0  0  0  0  0
    2.0545    1.0431   -0.0005 O   0  0  0  0  0  0  0  0  0  0  0  0
    1.8409   -1.0154    0.0005 H   0  0  0  0  0  0  0  0  0  0  0  0
   -1.4105    1.2670   -0.9122 H   0  0  0  0  0  0  0  0  0  0  0  0
   -1.4114    1.2664    0.9116 H   0  0  0  0  0  0  0  0  0  0  0  0
   -0.0610    2.1004    0.0007 H   0  0  0  0  0  0  0  0  0  0  0  0
   -0.0563   -2.1104   -0.0005 H   0  0  0  0  0  0  0  0  0  0  0  0
   -1.4002   -1.2774    0.9105 H   0  0  0  0  0  0  0  0  0  0  0  0
   -1.3998   -1.2768   -0.9120 H   0  0  0  0  0  0  0  0  0  0  0  0
  1  2  1  0  0  0  0
  1  3  1  0  0  0  0
  1  4  1  0  0  0  0
  2  5  2  0  0  0  0
  2  6  1  0  0  0  0
  3  7  1  0  0  0  0
  3  8  1  0  0  0  0
  3  9  1  0  0  0  0
  4 10  1  0  0  0  0
  4 11  1  0  0  0  0
  4 12  1  0  0  0  0
M  END