71238.out.mol
  Mrv0541 03111415023D          

 12 11  0  0  0  0            999 V2000
    0.0000    0.0000    0.0000 C   0  0  1  0  0  0  0  0  0  0  0  0
    1.5192    0.0000    0.0000 C   0  0  1  0  0  0  0  0  0  0  0  0
   -0.5352    1.4070    0.0000 C   0  0  0  0  0  0  0  0  0  0  0  0
    1.9371   -1.3562    0.0006 O   0  0  0  0  0  0  0  0  0  0  0  0
   -0.3663   -0.5564   -0.9019 H   0  0  0  0  0  0  0  0  0  0  0  0
   -0.3662   -0.5564    0.9020 H   0  0  0  0  0  0  0  0  0  0  0  0
    1.9141    0.5214   -0.9133 H   0  0  0  0  0  0  0  0  0  0  0  0
    1.9141    0.5224    0.9127 H   0  0  0  0  0  0  0  0  0  0  0  0
   -0.1895    1.9629    0.9051 H   0  0  0  0  0  0  0  0  0  0  0  0
   -0.1900    1.9627   -0.9055 H   0  0  0  0  0  0  0  0  0  0  0  0
   -1.6519    1.3934    0.0005 H   0  0  0  0  0  0  0  0  0  0  0  0
    2.9007   -1.3469    0.0002 H   0  0  0  0  0  0  0  0  0  0  0  0
  1  2  1  0  0  0  0
  1  3  1  0  0  0  0
  1  5  1  0  0  0  0
  1  6  1  0  0  0  0
  2  4  1  0  0  0  0
  2  7  1  0  0  0  0
  2  8  1  0  0  0  0
  3  9  1  0  0  0  0
  3 10  1  0  0  0  0
  3 11  1  0  0  0  0
  4 12  1  0  0  0  0
M  END