110861.out.mol
  Mrv0541 03111415023D          

 11 11  0  0  0  0            999 V2000
    0.0000    0.0000    0.0000 C   0  0  0  0  0  0  0  0  0  0  0  0
    1.3960    0.0000    0.0000 C   0  0  0  0  0  0  0  0  0  0  0  0
   -0.6747    1.2222    0.0000 C   0  0  0  0  0  0  0  0  0  0  0  0
    2.0659    1.2374    0.0006 C   0  0  0  0  0  0  0  0  0  0  0  0
    0.0848    2.4066   -0.0006 C   0  0  0  0  0  0  0  0  0  0  0  0
    1.4320    2.4263    0.0006 N   0  0  0  0  0  0  0  0  0  0  0  0
   -0.5588   -0.9469   -0.0004 H   0  0  0  0  0  0  0  0  0  0  0  0
    1.9639   -0.9390    0.0004 H   0  0  0  0  0  0  0  0  0  0  0  0
   -1.7712    1.2655   -0.0004 H   0  0  0  0  0  0  0  0  0  0  0  0
    3.1696    1.2828    0.0001 H   0  0  0  0  0  0  0  0  0  0  0  0
   -0.4088    3.3949   -0.0010 H   0  0  0  0  0  0  0  0  0  0  0  0
  1  2  2  0  0  0  0
  1  3  1  0  0  0  0
  1  7  1  0  0  0  0
  2  4  1  0  0  0  0
  2  8  1  0  0  0  0
  3  5  2  0  0  0  0
  3  9  1  0  0  0  0
  4  6  2  0  0  0  0
  4 10  1  0  0  0  0
  5  6  1  0  0  0  0
  5 11  1  0  0  0  0
M  END