75218.out.mol
  Mrv0541 03111415023D          

  7  7  0  0  0  0            999 V2000
    0.0000    0.0000    0.0000 C   0  0  1  0  0  0  0  0  0  0  0  0
    1.4840    0.0000    0.0000 C   0  0  1  0  0  0  0  0  0  0  0  0
    0.7420    1.2291    0.0000 O   0  0  0  0  0  0  0  0  0  0  0  0
   -0.5657   -0.1934   -0.9293 H   0  0  0  0  0  0  0  0  0  0  0  0
   -0.5657   -0.1934    0.9293 H   0  0  0  0  0  0  0  0  0  0  0  0
    2.0496   -0.1934    0.9293 H   0  0  0  0  0  0  0  0  0  0  0  0
    2.0496   -0.1934   -0.9293 H   0  0  0  0  0  0  0  0  0  0  0  0
  1  2  1  0  0  0  0
  1  3  1  0  0  0  0
  1  4  1  0  0  0  0
  1  5  1  0  0  0  0
  2  3  1  0  0  0  0
  2  6  1  0  0  0  0
  2  7  1  0  0  0  0
M  END