2008584.out.mol
  Mrv0541 03111415023D          

 16 16  0  0  0  0            999 V2000
    0.0000    0.0000    0.0000 C   0  0  0  0  0  0  0  0  0  0  0  0
    1.4017    0.0000    0.0000 C   0  0  0  0  0  0  0  0  0  0  0  0
   -0.6808    1.2252    0.0000 C   0  0  0  0  0  0  0  0  0  0  0  0
   -0.7591   -1.2903   -0.0443 C   0  0  0  0  0  0  0  0  0  0  0  0
    2.1125    1.2049   -0.0165 C   0  0  0  0  0  0  0  0  0  0  0  0
    2.2596   -1.4645    0.0223 Cl  0  0  0  0  0  0  0  0  0  0  0  0
    0.0271    2.4318   -0.0164 C   0  0  0  0  0  0  0  0  0  0  0  0
   -2.3777    1.2638    0.0222 Cl  0  0  0  0  0  0  0  0  0  0  0  0
   -1.0899   -1.8545    1.1611 N   0  0  0  0  0  0  0  0  0  0  0  0
   -1.0798   -1.8336   -1.1173 O   0  0  0  0  0  0  0  0  0  0  0  0
    1.4202    2.4140   -0.0270 C   0  0  0  0  0  0  0  0  0  0  0  0
    3.2133    1.1967   -0.0241 H   0  0  0  0  0  0  0  0  0  0  0  0
   -0.5148    3.3901   -0.0239 H   0  0  0  0  0  0  0  0  0  0  0  0
   -0.8375   -1.4276    2.0134 H   0  0  0  0  0  0  0  0  0  0  0  0
   -1.5919   -2.7070    1.1778 H   0  0  0  0  0  0  0  0  0  0  0  0
    1.9785    3.3628   -0.0445 H   0  0  0  0  0  0  0  0  0  0  0  0
  1  2  2  0  0  0  0
  1  3  1  0  0  0  0
  1  4  1  0  0  0  0
  2  5  1  0  0  0  0
  2  6  1  0  0  0  0
  3  7  2  0  0  0  0
  3  8  1  0  0  0  0
  4  9  1  0  0  0  0
  4 10  2  0  0  0  0
  5 11  2  0  0  0  0
  5 12  1  0  0  0  0
  7 11  1  0  0  0  0
  7 13  1  0  0  0  0
  9 14  1  0  0  0  0
  9 15  1  0  0  0  0
 11 16  1  0  0  0  0
M  END