110021.out.mol
  Mrv0541 03111415023D          

  9  9  0  0  0  0            999 V2000
    0.0000    0.0000    0.0000 C   0  0  0  0  0  0  0  0  0  0  0  0
    1.4321    0.0000    0.0000 C   0  0  0  0  0  0  0  0  0  0  0  0
   -0.5053    1.2812    0.0000 C   0  0  0  0  0  0  0  0  0  0  0  0
    1.9374    1.2812   -0.0006 C   0  0  0  0  0  0  0  0  0  0  0  0
    0.7161    2.4234   -0.0004 S   0  0  0  0  0  0  0  0  0  0  0  0
   -0.5963   -0.9142    0.0004 H   0  0  0  0  0  0  0  0  0  0  0  0
    2.0285   -0.9142    0.0004 H   0  0  0  0  0  0  0  0  0  0  0  0
   -1.5605    1.5473    0.0004 H   0  0  0  0  0  0  0  0  0  0  0  0
    2.9926    1.5474   -0.0011 H   0  0  0  0  0  0  0  0  0  0  0  0
  1  2  1  0  0  0  0
  1  3  2  0  0  0  0
  1  6  1  0  0  0  0
  2  4  2  0  0  0  0
  2  7  1  0  0  0  0
  3  5  1  0  0  0  0
  3  8  1  0  0  0  0
  4  5  1  0  0  0  0
  4  9  1  0  0  0  0
M  END