111444.out.mol
  Mrv0541 03111415023D          

 15 14  0  0  0  0            999 V2000
    0.0000    0.0000    0.0000 O   0  0  0  0  0  0  0  0  0  0  0  0
    1.4276    0.0000    0.0000 C   0  0  1  0  0  0  0  0  0  0  0  0
   -0.5341    1.3240    0.0000 C   0  0  1  0  0  0  0  0  0  0  0  0
    1.8375   -1.4613   -0.0007 C   0  0  1  0  0  0  0  0  0  0  0  0
   -2.0426    1.1574    0.0007 C   0  0  1  0  0  0  0  0  0  0  0  0
    3.5827   -1.6056    0.0000 Cl  0  0  0  0  0  0  0  0  0  0  0  0
   -2.8293    2.7219    0.0015 Cl  0  0  0  0  0  0  0  0  0  0  0  0
    1.8061    0.5288   -0.9150 H   0  0  0  0  0  0  0  0  0  0  0  0
    1.8060    0.5281    0.9154 H   0  0  0  0  0  0  0  0  0  0  0  0
   -0.1854    1.8727    0.9151 H   0  0  0  0  0  0  0  0  0  0  0  0
   -0.1857    1.8725   -0.9153 H   0  0  0  0  0  0  0  0  0  0  0  0
    1.4578   -1.9803    0.9113 H   0  0  0  0  0  0  0  0  0  0  0  0
    1.4580   -1.9795   -0.9131 H   0  0  0  0  0  0  0  0  0  0  0  0
   -2.3819    0.6113   -0.9114 H   0  0  0  0  0  0  0  0  0  0  0  0
   -2.3811    0.6113    0.9130 H   0  0  0  0  0  0  0  0  0  0  0  0
  1  2  1  0  0  0  0
  1  3  1  0  0  0  0
  2  4  1  0  0  0  0
  2  8  1  0  0  0  0
  2  9  1  0  0  0  0
  3  5  1  0  0  0  0
  3 10  1  0  0  0  0
  3 11  1  0  0  0  0
  4  6  1  0  0  0  0
  4 12  1  0  0  0  0
  4 13  1  0  0  0  0
  5  7  1  0  0  0  0
  5 14  1  0  0  0  0
  5 15  1  0  0  0  0
M  END