148016.out.mol
  Mrv0541 03111415023D          

 23 23  0  0  0  0            999 V2000
    0.0000    0.0000    0.0000 C   0  0  0  0  0  0  0  0  0  0  0  0
    1.4084    0.0000    0.0000 C   0  0  0  0  0  0  0  0  0  0  0  0
   -0.7334    1.1840    0.0000 C   0  0  0  0  0  0  0  0  0  0  0  0
   -0.7648   -1.2891   -0.0454 C   0  0  0  0  0  0  0  0  0  0  0  0
    2.0617    1.2543    0.0103 C   0  0  0  0  0  0  0  0  0  0  0  0
    2.1649   -1.2712   -0.0082 C   0  0  0  0  0  0  0  0  0  0  0  0
   -0.0563    2.4139   -0.0005 C   0  0  0  0  0  0  0  0  0  0  0  0
   -1.5549   -1.5785    1.0366 N   0  0  0  0  0  0  0  0  0  0  0  0
   -0.7090   -2.0582   -1.0234 O   0  0  0  0  0  0  0  0  0  0  0  0
    1.3415    2.4607   -0.0004 C   0  0  0  0  0  0  0  0  0  0  0  0
    3.5498    1.3595    0.0274 N   0  3  0  0  0  0  0  0  0  0  0  0
   -0.8364    3.6817    0.0000 N   0  3  0  0  0  0  0  0  0  0  0  0
    4.2158    0.3845    0.2415 O   0  5  0  0  0  0  0  0  0  0  0  0
    4.0419    2.4383   -0.1672 O   0  0  0  0  0  0  0  0  0  0  0  0
   -2.0349    3.6162    0.0380 O   0  5  0  0  0  0  0  0  0  0  0  0
   -0.2443    4.7245   -0.0316 O   0  0  0  0  0  0  0  0  0  0  0  0
   -1.8396    1.1604   -0.0090 H   0  0  0  0  0  0  0  0  0  0  0  0
    2.7528   -1.3735    0.9415 H   0  0  0  0  0  0  0  0  0  0  0  0
    1.4937   -2.1590   -0.1173 H   0  0  0  0  0  0  0  0  0  0  0  0
    2.8959   -1.2827   -0.8590 H   0  0  0  0  0  0  0  0  0  0  0  0
   -1.5897   -0.9829    1.8226 H   0  0  0  0  0  0  0  0  0  0  0  0
   -2.0828   -2.4167    1.0429 H   0  0  0  0  0  0  0  0  0  0  0  0
    1.8716    3.4365   -0.0098 H   0  0  0  0  0  0  0  0  0  0  0  0
  1  2  2  0  0  0  0
  1  3  1  0  0  0  0
  1  4  1  0  0  0  0
  2  5  1  0  0  0  0
  2  6  1  0  0  0  0
  3  7  2  0  0  0  0
  3 17  1  0  0  0  0
  4  8  1  0  0  0  0
  4  9  2  0  0  0  0
  5 10  2  0  0  0  0
  5 11  1  0  0  0  0
  6 18  1  0  0  0  0
  6 19  1  0  0  0  0
  6 20  1  0  0  0  0
  7 10  1  0  0  0  0
  7 12  1  0  0  0  0
  8 21  1  0  0  0  0
  8 22  1  0  0  0  0
 10 23  1  0  0  0  0
 11 13  1  0  0  0  0
 11 14  2  0  0  0  0
 12 15  1  0  0  0  0
 12 16  2  0  0  0  0
M  CHG  4  11   1  12   1  13  -1  15  -1
M  END