107926.out.mol
  Mrv0541 03111415023D          

 14 13  0  0  0  0            999 V2000
    0.0000    0.0000    0.0000 C   0  0  1  0  0  0  0  0  0  0  0  0
    1.4935    0.0000    0.0000 C   0  0  0  0  0  0  0  0  0  0  0  0
   -0.5543    1.4086    0.0000 C   0  0  1  0  0  0  0  0  0  0  0  0
    2.0379   -1.2521    0.0006 O   0  0  0  0  0  0  0  0  0  0  0  0
    2.2886    0.9436   -0.0004 O   0  0  0  0  0  0  0  0  0  0  0  0
   -2.0606    1.3967   -0.0006 C   0  0  0  0  0  0  0  0  0  0  0  0
   -0.3532   -0.5630   -0.9052 H   0  0  0  0  0  0  0  0  0  0  0  0
   -0.3532   -0.5630    0.9052 H   0  0  0  0  0  0  0  0  0  0  0  0
   -0.1731    1.9584    0.9011 H   0  0  0  0  0  0  0  0  0  0  0  0
   -0.1730    1.9584   -0.9010 H   0  0  0  0  0  0  0  0  0  0  0  0
    3.0067   -1.1865    0.0001 H   0  0  0  0  0  0  0  0  0  0  0  0
   -2.4527    0.8739   -0.9064 H   0  0  0  0  0  0  0  0  0  0  0  0
   -2.4534    0.8730    0.9043 H   0  0  0  0  0  0  0  0  0  0  0  0
   -2.4517    2.4428   -0.0002 H   0  0  0  0  0  0  0  0  0  0  0  0
  1  2  1  0  0  0  0
  1  3  1  0  0  0  0
  1  7  1  0  0  0  0
  1  8  1  0  0  0  0
  2  4  1  0  0  0  0
  2  5  2  0  0  0  0
  3  6  1  0  0  0  0
  3  9  1  0  0  0  0
  3 10  1  0  0  0  0
  4 11  1  0  0  0  0
  6 12  1  0  0  0  0
  6 13  1  0  0  0  0
  6 14  1  0  0  0  0
M  END