4104750.out.mol
  Mrv0541 03111415023D          

 21 21  0  0  0  0            999 V2000
    0.0000    0.0000    0.0000 C   0  0  0  0  0  0  0  0  0  0  0  0
    1.4428    0.0000    0.0000 N   0  0  0  0  0  0  0  0  0  0  0  0
    2.0937    1.2626    0.0000 C   0  0  0  0  0  0  0  0  0  0  0  0
    1.7051    2.2668   -0.9128 C   0  0  0  0  0  0  0  0  0  0  0  0
    2.3256    3.5124   -0.8883 C   0  0  0  0  0  0  0  0  0  0  0  0
    3.3373    3.7822    0.0322 C   0  0  0  0  0  0  0  0  0  0  0  0
    3.7237    2.7984    0.9409 C   0  0  0  0  0  0  0  0  0  0  0  0
    3.1102    1.5486    0.9364 C   0  0  0  0  0  0  0  0  0  0  0  0
    2.1253   -1.1965   -0.2246 C   0  0  0  0  0  0  0  0  0  0  0  0
    1.3419   -2.6276   -0.2648 S   0  0  0  0  0  0  0  0  0  0  0  0
    3.4889   -1.1742   -0.3974 N   0  0  0  0  0  0  0  0  0  0  0  0
   -0.3951    0.0578   -1.0502 H   0  0  0  0  0  0  0  0  0  0  0  0
   -0.3751   -0.9489    0.4759 H   0  0  0  0  0  0  0  0  0  0  0  0
   -0.3609    0.8877    0.5824 H   0  0  0  0  0  0  0  0  0  0  0  0
    0.9055    2.0703   -1.6441 H   0  0  0  0  0  0  0  0  0  0  0  0
    2.0133    4.2873   -1.6051 H   0  0  0  0  0  0  0  0  0  0  0  0
    3.8250    4.7678    0.0441 H   0  0  0  0  0  0  0  0  0  0  0  0
    4.5151    3.0097    1.6763 H   0  0  0  0  0  0  0  0  0  0  0  0
    3.4126    0.7934    1.6790 H   0  0  0  0  0  0  0  0  0  0  0  0
    3.9361   -2.0483   -0.5450 H   0  0  0  0  0  0  0  0  0  0  0  0
    4.0222   -0.3406   -0.4255 H   0  0  0  0  0  0  0  0  0  0  0  0
  1  2  1  0  0  0  0
  1 12  1  0  0  0  0
  1 13  1  0  0  0  0
  1 14  1  0  0  0  0
  2  3  1  0  0  0  0
  2  9  1  0  0  0  0
  3  4  2  0  0  0  0
  3  8  1  0  0  0  0
  4  5  1  0  0  0  0
  4 15  1  0  0  0  0
  5  6  2  0  0  0  0
  5 16  1  0  0  0  0
  6  7  1  0  0  0  0
  6 17  1  0  0  0  0
  7  8  2  0  0  0  0
  7 18  1  0  0  0  0
  8 19  1  0  0  0  0
  9 10  2  0  0  0  0
  9 11  1  0  0  0  0
 11 20  1  0  0  0  0
 11 21  1  0  0  0  0
M  END