75354.out.mol
  Mrv0541 03111415023D          

  6  5  0  0  0  0            999 V2000
    0.0000    0.0000    0.0000 C   0  0  0  0  0  0  0  0  0  0  0  0
    1.3348    0.0000    0.0000 C   0  0  0  0  0  0  0  0  0  0  0  0
   -0.9090    1.4357    0.0000 Cl  0  0  0  0  0  0  0  0  0  0  0  0
   -0.9091   -1.4357    0.0006 Cl  0  0  0  0  0  0  0  0  0  0  0  0
    1.9192    0.9301   -0.0004 H   0  0  0  0  0  0  0  0  0  0  0  0
    1.9191   -0.9302    0.0004 H   0  0  0  0  0  0  0  0  0  0  0  0
  1  2  2  0  0  0  0
  1  3  1  0  0  0  0
  1  4  1  0  0  0  0
  2  5  1  0  0  0  0
  2  6  1  0  0  0  0
M  END