
  Mrv0541 03111415023D          

 21 20  0  0  0  0            999 V2000
    0.0000    0.0000    0.0000 N   0  3  0  0  0  0  0  0  0  0  0  0
    1.3427    0.0000    0.0000 O   0  0  0  0  0  0  0  0  0  0  0  0
   -0.5516    1.0571    0.0000 O   0  5  0  0  0  0  0  0  0  0  0  0
   -0.4745   -1.0888    0.0075 O   0  0  0  0  0  0  0  0  0  0  0  0
    2.0474    1.2744   -0.0288 C   0  0  1  0  0  0  0  0  0  0  0  0
    3.4979    0.8916   -0.2881 C   0  0  1  0  0  0  0  0  0  0  0  0
    3.6896    0.9773   -1.6982 O   0  0  0  0  0  0  0  0  0  0  0  0
    4.9167    0.3869   -2.1202 C   0  0  1  0  0  0  0  0  0  0  0  0
    5.1249    0.8177   -3.5655 C   0  0  1  0  0  0  0  0  0  0  0  0
    5.9614    2.0059   -3.4657 O   0  0  0  0  0  0  0  0  0  0  0  0
    6.1535    2.7591   -4.5605 N   0  3  0  0  0  0  0  0  0  0  0  0
    5.6416    2.3982   -5.5752 O   0  5  0  0  0  0  0  0  0  0  0  0
    6.8360    3.7118   -4.3673 O   0  0  0  0  0  0  0  0  0  0  0  0
    1.6357    1.9239   -0.8443 H   0  0  0  0  0  0  0  0  0  0  0  0
    1.9255    1.7638    0.9705 H   0  0  0  0  0  0  0  0  0  0  0  0
    4.1760    1.6265    0.2222 H   0  0  0  0  0  0  0  0  0  0  0  0
    3.7127   -0.1479    0.0767 H   0  0  0  0  0  0  0  0  0  0  0  0
    5.7644    0.7313   -1.4700 H   0  0  0  0  0  0  0  0  0  0  0  0
    4.8244   -0.7309   -2.0723 H   0  0  0  0  0  0  0  0  0  0  0  0
    5.6863    0.0432   -4.1468 H   0  0  0  0  0  0  0  0  0  0  0  0
    4.1556    1.0699   -4.0688 H   0  0  0  0  0  0  0  0  0  0  0  0
  1  2  1  0  0  0  0
  1  3  1  0  0  0  0
  1  4  2  0  0  0  0
  2  5  1  0  0  0  0
  5  6  1  0  0  0  0
  5 14  1  0  0  0  0
  5 15  1  0  0  0  0
  6  7  1  0  0  0  0
  6 16  1  0  0  0  0
  6 17  1  0  0  0  0
  7  8  1  0  0  0  0
  8  9  1  0  0  0  0
  8 18  1  0  0  0  0
  8 19  1  0  0  0  0
  9 10  1  0  0  0  0
  9 20  1  0  0  0  0
  9 21  1  0  0  0  0
 10 11  1  0  0  0  0
 11 12  1  0  0  0  0
 11 13  2  0  0  0  0
M  CHG  4   1   1   3  -1  11   1  12  -1
M  END