109524.out.mol
  Mrv0541 03111415023D          

 17 16  0  0  0  0            999 V2000
    0.0000    0.0000    0.0000 C   0  0  1  0  0  0  0  0  0  0  0  0
    1.4936    0.0000    0.0000 C   0  0  0  0  0  0  0  0  0  0  0  0
   -0.5534    1.4084    0.0000 C   0  0  1  0  0  0  0  0  0  0  0  0
    2.0375   -1.2524   -0.0006 O   0  0  0  0  0  0  0  0  0  0  0  0
    2.2891    0.9432    0.0012 O   0  0  0  0  0  0  0  0  0  0  0  0
   -2.0671    1.3927   -0.0006 C   0  0  1  0  0  0  0  0  0  0  0  0
   -2.6285    2.7911   -0.0013 C   0  0  0  0  0  0  0  0  0  0  0  0
   -0.3528   -0.5633   -0.9052 H   0  0  0  0  0  0  0  0  0  0  0  0
   -0.3528   -0.5633    0.9053 H   0  0  0  0  0  0  0  0  0  0  0  0
   -0.1763    1.9596    0.9016 H   0  0  0  0  0  0  0  0  0  0  0  0
   -0.1748    1.9603   -0.9006 H   0  0  0  0  0  0  0  0  0  0  0  0
    3.0064   -1.1871   -0.0001 H   0  0  0  0  0  0  0  0  0  0  0  0
   -2.4362    0.8380   -0.9037 H   0  0  0  0  0  0  0  0  0  0  0  0
   -2.4369    0.8379    0.9020 H   0  0  0  0  0  0  0  0  0  0  0  0
   -3.7448    2.7597   -0.0013 H   0  0  0  0  0  0  0  0  0  0  0  0
   -2.2908    3.3521    0.9036 H   0  0  0  0  0  0  0  0  0  0  0  0
   -2.2906    3.3514   -0.9064 H   0  0  0  0  0  0  0  0  0  0  0  0
  1  2  1  0  0  0  0
  1  3  1  0  0  0  0
  1  8  1  0  0  0  0
  1  9  1  0  0  0  0
  2  4  1  0  0  0  0
  2  5  2  0  0  0  0
  3  6  1  0  0  0  0
  3 10  1  0  0  0  0
  3 11  1  0  0  0  0
  4 12  1  0  0  0  0
  6  7  1  0  0  0  0
  6 13  1  0  0  0  0
  6 14  1  0  0  0  0
  7 15  1  0  0  0  0
  7 16  1  0  0  0  0
  7 17  1  0  0  0  0
M  END