6972050.out.mol
  Mrv0541 03111415023D          

 14 13  0  0  0  0            999 V2000
    0.0000    0.0000    0.0000 N   0  0  0  0  0  0  0  0  0  0  0  0
    1.3774    0.0000    0.0000 C   0  0  0  0  0  0  0  0  0  0  0  0
    2.1526    1.4401    0.0000 S   0  0  0  0  0  0  0  0  0  0  0  0
    2.0550   -1.2120    0.0005 N   0  0  0  0  0  0  0  0  0  0  0  0
    3.4937   -1.2430   -0.0021 C   0  0  0  0  0  0  0  0  0  0  0  0
    1.3711   -2.4735   -0.0006 C   0  0  0  0  0  0  0  0  0  0  0  0
   -0.5504   -0.8207    0.0021 H   0  0  0  0  0  0  0  0  0  0  0  0
   -0.4455    0.8876    0.0017 H   0  0  0  0  0  0  0  0  0  0  0  0
    3.9113   -0.1961   -0.0004 H   0  0  0  0  0  0  0  0  0  0  0  0
    3.8561   -1.7876    0.9109 H   0  0  0  0  0  0  0  0  0  0  0  0
    3.8532   -1.7833   -0.9187 H   0  0  0  0  0  0  0  0  0  0  0  0
    0.7258   -2.5785   -0.9152 H   0  0  0  0  0  0  0  0  0  0  0  0
    2.1195   -3.3099   -0.0004 H   0  0  0  0  0  0  0  0  0  0  0  0
    0.7249   -2.5793    0.9133 H   0  0  0  0  0  0  0  0  0  0  0  0
  1  2  1  0  0  0  0
  1  7  1  0  0  0  0
  1  8  1  0  0  0  0
  2  3  2  0  0  0  0
  2  4  1  0  0  0  0
  4  5  1  0  0  0  0
  4  6  1  0  0  0  0
  5  9  1  0  0  0  0
  5 10  1  0  0  0  0
  5 11  1  0  0  0  0
  6 12  1  0  0  0  0
  6 13  1  0  0  0  0
  6 14  1  0  0  0  0
M  END