100425.out.mol
  Mrv0541 03111415023D          

 16 16  0  0  0  0            999 V2000
    0.0000    0.0000    0.0000 C   0  0  0  0  0  0  0  0  0  0  0  0
    1.4044    0.0000    0.0000 C   0  0  0  0  0  0  0  0  0  0  0  0
   -0.6776    1.2274    0.0000 C   0  0  0  0  0  0  0  0  0  0  0  0
   -0.7098   -1.2703   -0.0091 C   0  0  0  0  0  0  0  0  0  0  0  0
    2.1107    1.1998    0.0098 C   0  0  0  0  0  0  0  0  0  0  0  0
    0.0328    2.4263    0.0069 C   0  0  0  0  0  0  0  0  0  0  0  0
   -1.9819   -1.4457    0.3530 C   0  0  0  0  0  0  0  0  0  0  0  0
    1.4270    2.4161    0.0133 C   0  0  0  0  0  0  0  0  0  0  0  0
    1.9485   -0.9564   -0.0044 H   0  0  0  0  0  0  0  0  0  0  0  0
   -1.7776    1.2458   -0.0115 H   0  0  0  0  0  0  0  0  0  0  0  0
   -0.1040   -2.1337   -0.3400 H   0  0  0  0  0  0  0  0  0  0  0  0
    3.2105    1.1880    0.0137 H   0  0  0  0  0  0  0  0  0  0  0  0
   -0.5099    3.3830    0.0064 H   0  0  0  0  0  0  0  0  0  0  0  0
   -2.6275   -0.6304    0.7034 H   0  0  0  0  0  0  0  0  0  0  0  0
   -2.4591   -2.4341    0.3250 H   0  0  0  0  0  0  0  0  0  0  0  0
    1.9860    3.3628    0.0192 H   0  0  0  0  0  0  0  0  0  0  0  0
  1  2  2  0  0  0  0
  1  3  1  0  0  0  0
  1  4  1  0  0  0  0
  2  5  1  0  0  0  0
  2  9  1  0  0  0  0
  3  6  2  0  0  0  0
  3 10  1  0  0  0  0
  4  7  2  0  0  0  0
  4 11  1  0  0  0  0
  5  8  2  0  0  0  0
  5 12  1  0  0  0  0
  6  8  1  0  0  0  0
  6 13  1  0  0  0  0
  7 14  1  0  0  0  0
  7 15  1  0  0  0  0
  8 16  1  0  0  0  0
M  END