94757.out.mol
  Mrv0541 03111415023D          

 19 19  0  0  0  0            999 V2000
    0.0000    0.0000    0.0000 C   0  0  0  0  0  0  0  0  0  0  0  0
    1.4054    0.0000    0.0000 C   0  0  0  0  0  0  0  0  0  0  0  0
   -0.7113    1.2080    0.0000 C   0  0  0  0  0  0  0  0  0  0  0  0
   -0.7181   -1.1855    0.1280 O   0  0  0  0  0  0  0  0  0  0  0  0
    2.0945    1.2174    0.0170 C   0  0  0  0  0  0  0  0  0  0  0  0
    2.2971   -1.4445   -0.0179 Cl  0  0  0  0  0  0  0  0  0  0  0  0
   -0.0231    2.4168    0.0183 C   0  0  0  0  0  0  0  0  0  0  0  0
   -0.9525   -1.8769   -1.0925 C   0  0  1  0  0  0  0  0  0  0  0  0
    1.3763    2.4159    0.0280 C   0  0  0  0  0  0  0  0  0  0  0  0
   -2.1711   -1.3480   -1.7994 C   0  0  0  0  0  0  0  0  0  0  0  0
    2.2186    3.8906    0.0493 Cl  0  0  0  0  0  0  0  0  0  0  0  0
   -2.5721   -2.1475   -2.8281 O   0  0  0  0  0  0  0  0  0  0  0  0
   -2.8376   -0.3322   -1.5909 O   0  0  0  0  0  0  0  0  0  0  0  0
   -1.8145    1.1776   -0.0247 H   0  0  0  0  0  0  0  0  0  0  0  0
    3.1962    1.2276    0.0239 H   0  0  0  0  0  0  0  0  0  0  0  0
   -0.5802    3.3664    0.0231 H   0  0  0  0  0  0  0  0  0  0  0  0
   -0.0704   -1.8257   -1.7824 H   0  0  0  0  0  0  0  0  0  0  0  0
   -1.1403   -2.9396   -0.7721 H   0  0  0  0  0  0  0  0  0  0  0  0
   -3.3612   -1.7676   -3.2490 H   0  0  0  0  0  0  0  0  0  0  0  0
  1  2  2  0  0  0  0
  1  3  1  0  0  0  0
  1  4  1  0  0  0  0
  2  5  1  0  0  0  0
  2  6  1  0  0  0  0
  3  7  2  0  0  0  0
  3 14  1  0  0  0  0
  4  8  1  0  0  0  0
  5  9  2  0  0  0  0
  5 15  1  0  0  0  0
  7  9  1  0  0  0  0
  7 16  1  0  0  0  0
  8 10  1  0  0  0  0
  8 17  1  0  0  0  0
  8 18  1  0  0  0  0
  9 11  1  0  0  0  0
 10 12  1  0  0  0  0
 10 13  2  0  0  0  0
 12 19  1  0  0  0  0
M  END