108383.out.mol
  Mrv0541 03111415023D          

 18 18  0  0  0  0            999 V2000
    0.0000    0.0000    0.0000 C   0  0  0  0  0  0  0  0  0  0  0  0
    1.3987    0.0000    0.0000 C   0  0  0  0  0  0  0  0  0  0  0  0
   -0.7137    1.2029    0.0000 C   0  0  0  0  0  0  0  0  0  0  0  0
    2.0852    1.2198    0.0012 C   0  0  0  0  0  0  0  0  0  0  0  0
    2.1450   -1.2794   -0.0160 C   0  0  0  0  0  0  0  0  0  0  0  0
   -0.0150    2.4158   -0.0012 C   0  0  0  0  0  0  0  0  0  0  0  0
   -2.1948    1.1918    0.0159 C   0  0  0  0  0  0  0  0  0  0  0  0
    1.3783    2.4206    0.0001 C   0  0  0  0  0  0  0  0  0  0  0  0
   -0.5445   -0.9562   -0.0004 H   0  0  0  0  0  0  0  0  0  0  0  0
    3.1850    1.2281    0.0030 H   0  0  0  0  0  0  0  0  0  0  0  0
    2.3140   -1.6087   -1.0724 H   0  0  0  0  0  0  0  0  0  0  0  0
    3.1411   -1.1685    0.4789 H   0  0  0  0  0  0  0  0  0  0  0  0
    1.5749   -2.0823    0.5129 H   0  0  0  0  0  0  0  0  0  0  0  0
   -0.5691    3.3658   -0.0031 H   0  0  0  0  0  0  0  0  0  0  0  0
   -2.5644    1.1686    1.0723 H   0  0  0  0  0  0  0  0  0  0  0  0
   -2.6078    2.1053   -0.4786 H   0  0  0  0  0  0  0  0  0  0  0  0
   -2.5944    0.2920   -0.5135 H   0  0  0  0  0  0  0  0  0  0  0  0
    1.9226    3.3764   -0.0004 H   0  0  0  0  0  0  0  0  0  0  0  0
  1  2  2  0  0  0  0
  1  3  1  0  0  0  0
  1  9  1  0  0  0  0
  2  4  1  0  0  0  0
  2  5  1  0  0  0  0
  3  6  2  0  0  0  0
  3  7  1  0  0  0  0
  4  8  2  0  0  0  0
  4 10  1  0  0  0  0
  5 11  1  0  0  0  0
  5 12  1  0  0  0  0
  5 13  1  0  0  0  0
  6  8  1  0  0  0  0
  6 14  1  0  0  0  0
  7 15  1  0  0  0  0
  7 16  1  0  0  0  0
  7 17  1  0  0  0  0
  8 18  1  0  0  0  0
M  END