150196.out.mol
  Mrv0541 03111415023D          

 17 17  0  0  0  0            999 V2000
    0.0000    0.0000    0.0000 C   0  0  0  0  0  0  0  0  0  0  0  0
    1.3970    0.0000    0.0000 C   0  0  0  0  0  0  0  0  0  0  0  0
   -0.7318    1.2048    0.0000 C   0  0  0  0  0  0  0  0  0  0  0  0
   -0.7716   -1.1445    0.0005 O   0  0  0  0  0  0  0  0  0  0  0  0
    2.0582    1.2395    0.0006 C   0  0  0  0  0  0  0  0  0  0  0  0
   -0.0464    2.4127   -0.0005 C   0  0  0  0  0  0  0  0  0  0  0  0
   -0.0648   -2.3800   -0.0001 C   0  0  0  0  0  0  0  0  0  0  0  0
    1.3485    2.4469   -0.0016 C   0  0  0  0  0  0  0  0  0  0  0  0
    3.4335    1.1886    0.0011 O   0  0  0  0  0  0  0  0  0  0  0  0
    1.9874   -0.9249    0.0004 H   0  0  0  0  0  0  0  0  0  0  0  0
   -1.8295    1.1689   -0.0004 H   0  0  0  0  0  0  0  0  0  0  0  0
   -0.6110    3.3577   -0.0001 H   0  0  0  0  0  0  0  0  0  0  0  0
    0.5645   -2.4734   -0.9183 H   0  0  0  0  0  0  0  0  0  0  0  0
    0.5648   -2.4742    0.9178 H   0  0  0  0  0  0  0  0  0  0  0  0
   -0.8813   -3.1459   -0.0001 H   0  0  0  0  0  0  0  0  0  0  0  0
    1.8825    3.4062   -0.0016 H   0  0  0  0  0  0  0  0  0  0  0  0
    3.7646    2.0985    0.0010 H   0  0  0  0  0  0  0  0  0  0  0  0
  1  2  2  0  0  0  0
  1  3  1  0  0  0  0
  1  4  1  0  0  0  0
  2  5  1  0  0  0  0
  2 10  1  0  0  0  0
  3  6  2  0  0  0  0
  3 11  1  0  0  0  0
  4  7  1  0  0  0  0
  5  8  2  0  0  0  0
  5  9  1  0  0  0  0
  6  8  1  0  0  0  0
  6 12  1  0  0  0  0
  7 13  1  0  0  0  0
  7 14  1  0  0  0  0
  7 15  1  0  0  0  0
  8 16  1  0  0  0  0
  9 17  1  0  0  0  0
M  END