76017.out.mol
  Mrv0541 03111415023D          

  8  7  0  0  0  0            999 V2000
    0.0000    0.0000    0.0000 C   0  0  1  0  0  0  0  0  0  0  0  0
    1.5396    0.0000    0.0000 C   0  0  1  0  0  0  0  0  0  0  0  0
   -0.5714    1.6697    0.0000 Cl  0  0  0  0  0  0  0  0  0  0  0  0
   -0.5714   -0.7895   -1.4712 Cl  0  0  0  0  0  0  0  0  0  0  0  0
   -0.6348   -0.8399    1.4039 Cl  0  0  0  0  0  0  0  0  0  0  0  0
    2.1734    0.8433    1.3946 Cl  0  0  0  0  0  0  0  0  0  0  0  0
    2.1733   -1.6276   -0.0836 Cl  0  0  0  0  0  0  0  0  0  0  0  0
    1.9172    0.5421   -0.9062 H   0  0  0  0  0  0  0  0  0  0  0  0
  1  2  1  0  0  0  0
  1  3  1  0  0  0  0
  1  4  1  0  0  0  0
  1  5  1  0  0  0  0
  2  6  1  0  0  0  0
  2  7  1  0  0  0  0
  2  8  1  0  0  0  0
M  END