1918021.out.mol
  Mrv0541 03111415023D          

 16 16  0  0  0  0            999 V2000
    0.0000    0.0000    0.0000 C   0  0  0  0  0  0  0  0  0  0  0  0
    1.4051    0.0000    0.0000 C   0  0  0  0  0  0  0  0  0  0  0  0
   -0.7561    1.1171    0.0000 N   0  0  0  0  0  0  0  0  0  0  0  0
   -0.7334   -1.3019   -0.0221 C   0  0  0  0  0  0  0  0  0  0  0  0
    2.0984    1.2481   -0.0061 C   0  0  0  0  0  0  0  0  0  0  0  0
    2.2664   -1.4584    0.0094 Cl  0  0  0  0  0  0  0  0  0  0  0  0
   -0.1083    2.3043   -0.0097 C   0  0  0  0  0  0  0  0  0  0  0  0
   -1.1125   -1.7326    1.2095 O   0  0  0  0  0  0  0  0  0  0  0  0
   -1.0178   -1.9963   -0.9962 O   0  0  0  0  0  0  0  0  0  0  0  0
    1.2964    2.4276   -0.0165 C   0  0  0  0  0  0  0  0  0  0  0  0
    3.4631    1.3080    0.0288 N   0  0  0  0  0  0  0  0  0  0  0  0
   -1.0672    3.7175   -0.0150 Cl  0  0  0  0  0  0  0  0  0  0  0  0
    2.0337    3.9515   -0.0345 Cl  0  0  0  0  0  0  0  0  0  0  0  0
   -1.5977   -2.5712    1.1206 H   0  0  0  0  0  0  0  0  0  0  0  0
    3.9929    0.4771   -0.0705 H   0  0  0  0  0  0  0  0  0  0  0  0
    3.9187    2.1810   -0.0776 H   0  0  0  0  0  0  0  0  0  0  0  0
  1  2  2  0  0  0  0
  1  3  1  0  0  0  0
  1  4  1  0  0  0  0
  2  5  1  0  0  0  0
  2  6  1  0  0  0  0
  3  7  2  0  0  0  0
  4  8  1  0  0  0  0
  4  9  2  0  0  0  0
  5 10  2  0  0  0  0
  5 11  1  0  0  0  0
  7 10  1  0  0  0  0
  7 12  1  0  0  0  0
  8 14  1  0  0  0  0
 10 13  1  0  0  0  0
 11 15  1  0  0  0  0
 11 16  1  0  0  0  0
M  END