84662.out.mol
  Mrv0541 03111415023D          

 30 30  0  0  0  0            999 V2000
    0.0000    0.0000    0.0000 C   0  0  0  0  0  0  0  0  0  0  0  0
    1.4015    0.0000    0.0000 C   0  0  0  0  0  0  0  0  0  0  0  0
   -0.8032    1.2391    0.0000 C   0  0  0  0  0  0  0  0  0  0  0  0
   -0.6950   -1.2170   -0.0025 C   0  0  0  0  0  0  0  0  0  0  0  0
    2.2047    1.2387    0.0339 C   0  0  0  0  0  0  0  0  0  0  0  0
    2.0965   -1.2166   -0.0308 C   0  0  0  0  0  0  0  0  0  0  0  0
   -0.3695    2.1797   -0.8907 O   0  0  0  0  0  0  0  0  0  0  0  0
   -1.8128    1.4800    0.6662 O   0  0  0  0  0  0  0  0  0  0  0  0
    0.0034   -2.4226   -0.0231 C   0  0  0  0  0  0  0  0  0  0  0  0
    1.7712    2.1544    0.9503 O   0  0  0  0  0  0  0  0  0  0  0  0
    3.2141    1.4978   -0.6256 O   0  0  0  0  0  0  0  0  0  0  0  0
    1.3981   -2.4223   -0.0432 C   0  0  0  0  0  0  0  0  0  0  0  0
   -1.1010    3.4208   -0.9154 C   0  0  1  0  0  0  0  0  0  0  0  0
    2.5028    3.3943    1.0089 C   0  0  1  0  0  0  0  0  0  0  0  0
   -0.4304    4.2798   -1.9593 C   0  0  0  0  0  0  0  0  0  0  0  0
    1.8324    4.2243    2.0762 C   0  0  0  0  0  0  0  0  0  0  0  0
   -1.7967   -1.2082    0.0187 H   0  0  0  0  0  0  0  0  0  0  0  0
    3.1982   -1.2073   -0.0518 H   0  0  0  0  0  0  0  0  0  0  0  0
   -0.5489   -3.3745   -0.0245 H   0  0  0  0  0  0  0  0  0  0  0  0
    1.9504   -3.3739   -0.0678 H   0  0  0  0  0  0  0  0  0  0  0  0
   -2.1703    3.2021   -1.1713 H   0  0  0  0  0  0  0  0  0  0  0  0
   -1.0523    3.8830    0.1055 H   0  0  0  0  0  0  0  0  0  0  0  0
    3.5721    3.1686    1.2585 H   0  0  0  0  0  0  0  0  0  0  0  0
    2.4539    3.8844    0.0012 H   0  0  0  0  0  0  0  0  0  0  0  0
    0.6396    4.4559   -1.6923 H   0  0  0  0  0  0  0  0  0  0  0  0
   -0.4648    3.7832   -2.9583 H   0  0  0  0  0  0  0  0  0  0  0  0
   -0.9612    5.2597   -2.0189 H   0  0  0  0  0  0  0  0  0  0  0  0
    0.7624    4.4077    1.8144 H   0  0  0  0  0  0  0  0  0  0  0  0
    1.8669    3.7004    3.0611 H   0  0  0  0  0  0  0  0  0  0  0  0
    2.3632    5.2021    2.1627 H   0  0  0  0  0  0  0  0  0  0  0  0
  1  2  2  0  0  0  0
  1  3  1  0  0  0  0
  1  4  1  0  0  0  0
  2  5  1  0  0  0  0
  2  6  1  0  0  0  0
  3  7  1  0  0  0  0
  3  8  2  0  0  0  0
  4  9  2  0  0  0  0
  4 17  1  0  0  0  0
  5 10  1  0  0  0  0
  5 11  2  0  0  0  0
  6 12  2  0  0  0  0
  6 18  1  0  0  0  0
  7 13  1  0  0  0  0
  9 12  1  0  0  0  0
  9 19  1  0  0  0  0
 10 14  1  0  0  0  0
 12 20  1  0  0  0  0
 13 15  1  0  0  0  0
 13 21  1  0  0  0  0
 13 22  1  0  0  0  0
 14 16  1  0  0  0  0
 14 23  1  0  0  0  0
 14 24  1  0  0  0  0
 15 25  1  0  0  0  0
 15 26  1  0  0  0  0
 15 27  1  0  0  0  0
 16 28  1  0  0  0  0
 16 29  1  0  0  0  0
 16 30  1  0  0  0  0
M  END