88733.out.mol
  Mrv0541 03111415023D          

 14 14  0  0  0  0            999 V2000
    0.0000    0.0000    0.0000 C   0  0  0  0  0  0  0  0  0  0  0  0
    1.4068    0.0000    0.0000 C   0  0  0  0  0  0  0  0  0  0  0  0
   -0.7101    1.2127    0.0000 C   0  0  0  0  0  0  0  0  0  0  0  0
   -0.7881   -1.2670    0.0091 N   0  3  0  0  0  0  0  0  0  0  0  0
    2.0871    1.2248   -0.0316 C   0  0  0  0  0  0  0  0  0  0  0  0
    2.3098   -1.4279    0.0699 Cl  0  0  0  0  0  0  0  0  0  0  0  0
   -0.0156    2.4180   -0.0331 C   0  0  0  0  0  0  0  0  0  0  0  0
   -0.5209   -2.1388   -0.7691 O   0  5  0  0  0  0  0  0  0  0  0  0
   -1.7036   -1.3537    0.7829 O   0  0  0  0  0  0  0  0  0  0  0  0
    1.3795    2.4234   -0.0539 C   0  0  0  0  0  0  0  0  0  0  0  0
   -1.8130    1.2068    0.0311 H   0  0  0  0  0  0  0  0  0  0  0  0
    3.1889    1.2335   -0.0362 H   0  0  0  0  0  0  0  0  0  0  0  0
   -0.5733    3.3671   -0.0401 H   0  0  0  0  0  0  0  0  0  0  0  0
    1.9263    3.3790   -0.0830 H   0  0  0  0  0  0  0  0  0  0  0  0
  1  2  2  0  0  0  0
  1  3  1  0  0  0  0
  1  4  1  0  0  0  0
  2  5  1  0  0  0  0
  2  6  1  0  0  0  0
  3  7  2  0  0  0  0
  3 11  1  0  0  0  0
  4  8  1  0  0  0  0
  4  9  2  0  0  0  0
  5 10  2  0  0  0  0
  5 12  1  0  0  0  0
  7 10  1  0  0  0  0
  7 13  1  0  0  0  0
 10 14  1  0  0  0  0
M  CHG  2   4   1   8  -1
M  END