62555.out.mol
  Mrv0541 03111415023D          

  9  8  0  0  0  0            999 V2000
    0.0000    0.0000    0.0000 C   0  0  0  0  0  0  0  0  0  0  0  0
    1.5034    0.0000    0.0000 C   0  0  0  0  0  0  0  0  0  0  0  0
   -0.6208    1.2080    0.0000 N   0  0  0  0  0  0  0  0  0  0  0  0
   -0.7883   -1.3831    0.0006 S   0  0  0  0  0  0  0  0  0  0  0  0
    1.9555    1.0226    0.0007 H   0  0  0  0  0  0  0  0  0  0  0  0
    1.8677   -0.5458    0.9060 H   0  0  0  0  0  0  0  0  0  0  0  0
    1.8677   -0.5446   -0.9068 H   0  0  0  0  0  0  0  0  0  0  0  0
   -1.6134    1.2457   -0.0004 H   0  0  0  0  0  0  0  0  0  0  0  0
   -0.1111    2.0566   -0.0004 H   0  0  0  0  0  0  0  0  0  0  0  0
  1  2  1  0  0  0  0
  1  3  1  0  0  0  0
  1  4  2  0  0  0  0
  2  5  1  0  0  0  0
  2  6  1  0  0  0  0
  2  7  1  0  0  0  0
  3  8  1  0  0  0  0
  3  9  1  0  0  0  0
M  END