98828.out
  Mrv0541 03111415023D          

 21 21  0  0  0  0            999 V2000
    0.6694   -1.2849   -0.0021 C   0  0  0  0  0  0  0  0  0  0  0  0
    2.0480   -1.0768   -0.0015 C   0  0  0  0  0  0  0  0  0  0  0  0
    2.5609    0.2197    0.0004 C   0  0  0  0  0  0  0  0  0  0  0  0
    1.6894    1.3088    0.0021 C   0  0  0  0  0  0  0  0  0  0  0  0
    0.3112    1.1026    0.0016 C   0  0  0  0  0  0  0  0  0  0  0  0
   -0.2113   -0.1967   -0.0006 C   0  0  0  0  0  0  0  0  0  0  0  0
   -1.6899   -0.4291   -0.0012 C   0  0  1  0  0  0  0  0  0  0  0  0
   -2.3321    0.1462    1.2470 C   0  0  0  0  0  0  0  0  0  0  0  0
   -2.3323    0.1538   -1.2458 C   0  0  0  0  0  0  0  0  0  0  0  0
    3.6480    0.3832    0.0008 H   0  0  0  0  0  0  0  0  0  0  0  0
    2.7313   -1.9385   -0.0028 H   0  0  0  0  0  0  0  0  0  0  0  0
    2.0897    2.3331    0.0037 H   0  0  0  0  0  0  0  0  0  0  0  0
    0.2730   -2.3113   -0.0038 H   0  0  0  0  0  0  0  0  0  0  0  0
   -0.3725    1.9647    0.0030 H   0  0  0  0  0  0  0  0  0  0  0  0
   -1.8778   -1.5426   -0.0047 H   0  0  0  0  0  0  0  0  0  0  0  0
   -2.1865    1.2523    1.2909 H   0  0  0  0  0  0  0  0  0  0  0  0
   -3.4280   -0.0678    1.2456 H   0  0  0  0  0  0  0  0  0  0  0  0
   -1.8803   -0.3071    2.1614 H   0  0  0  0  0  0  0  0  0  0  0  0
   -2.1875    1.2604   -1.2827 H   0  0  0  0  0  0  0  0  0  0  0  0
   -3.4281   -0.0608   -1.2458 H   0  0  0  0  0  0  0  0  0  0  0  0
   -1.8802   -0.2931   -2.1632 H   0  0  0  0  0  0  0  0  0  0  0  0
  1  2  2  0  0  0  0
  1  6  1  0  0  0  0
  2  3  1  0  0  0  0
  3 10  1  0  0  0  0
  3  4  2  0  0  0  0
  4 12  1  0  0  0  0
  5  4  1  0  0  0  0
  5 14  1  0  0  0  0
  6  5  2  0  0  0  0
  7  6  1  0  0  0  0
  7  8  1  0  0  0  0
  8 16  1  0  0  0  0
  8 18  1  0  0  0  0
  9  7  1  0  0  0  0
 11  2  1  0  0  0  0
 13  1  1  0  0  0  0
 15  7  1  0  0  0  0
 17  8  1  0  0  0  0
 19  9  1  0  0  0  0
 20  9  1  0  0  0  0
 21  9  1  0  0  0  0
M  END