57837191.out.mol
  Mrv0541 03111415023D          

 41 41  0  0  0  0            999 V2000
    0.0000    0.0000    0.0000 N   0  0  0  0  0  0  0  0  0  0  0  0
    1.4247    0.0000    0.0000 C   0  0  0  0  0  0  0  0  0  0  0  0
   -0.6627    1.2950    0.0000 C   0  0  1  0  0  0  0  0  0  0  0  0
   -0.7402   -1.1763    0.0680 C   0  0  0  0  0  0  0  0  0  0  0  0
    2.1417   -0.2671    1.1944 C   0  0  0  0  0  0  0  0  0  0  0  0
    2.1391    0.2831   -1.1909 C   0  0  0  0  0  0  0  0  0  0  0  0
   -1.7639    1.4410   -1.0503 C   0  0  0  0  0  0  0  0  0  0  0  0
   -1.2679    1.6782    1.3542 C   0  0  0  0  0  0  0  0  0  0  0  0
   -0.0278   -2.5274   -0.0095 C   0  0  1  0  0  0  0  0  0  0  0  0
   -1.9828   -1.1244    0.1557 O   0  0  0  0  0  0  0  0  0  0  0  0
    3.5394   -0.2342    1.1796 C   0  0  0  0  0  0  0  0  0  0  0  0
    1.4434   -0.6023    2.4585 C   0  0  0  0  0  0  0  0  0  0  0  0
    3.5372    0.3106   -1.1651 C   0  0  0  0  0  0  0  0  0  0  0  0
    1.4395    0.5530   -2.4692 C   0  0  0  0  0  0  0  0  0  0  0  0
   -1.5008    0.8515   -2.2553 O   0  0  0  0  0  0  0  0  0  0  0  0
   -2.8033    2.0924   -0.9402 O   0  0  0  0  0  0  0  0  0  0  0  0
   -0.2673   -3.2835    1.1622 O   0  0  0  0  0  0  0  0  0  0  0  0
    4.2353    0.0567    0.0107 C   0  0  0  0  0  0  0  0  0  0  0  0
   -2.5274    0.9426   -3.2461 C   0  0  0  0  0  0  0  0  0  0  0  0
   -1.5390   -3.9191    1.2015 C   0  0  0  0  0  0  0  0  0  0  0  0
    0.1153    2.0721   -0.2812 H   0  0  0  0  0  0  0  0  0  0  0  0
   -1.9903    0.8977    1.6956 H   0  0  0  0  0  0  0  0  0  0  0  0
   -0.4624    1.7973    2.1162 H   0  0  0  0  0  0  0  0  0  0  0  0
   -1.8149    2.6465    1.2465 H   0  0  0  0  0  0  0  0  0  0  0  0
   -0.4058   -3.0544   -0.9255 H   0  0  0  0  0  0  0  0  0  0  0  0
    1.0908   -2.4283   -0.0491 H   0  0  0  0  0  0  0  0  0  0  0  0
    4.0930   -0.4416    2.1085 H   0  0  0  0  0  0  0  0  0  0  0  0
    2.1714   -0.7723    3.2894 H   0  0  0  0  0  0  0  0  0  0  0  0
    0.7538    0.2251    2.7611 H   0  0  0  0  0  0  0  0  0  0  0  0
    0.8345   -1.5355    2.3281 H   0  0  0  0  0  0  0  0  0  0  0  0
    4.0886    0.5347   -2.0913 H   0  0  0  0  0  0  0  0  0  0  0  0
    0.7111   -0.2637   -2.7057 H   0  0  0  0  0  0  0  0  0  0  0  0
    0.8573    1.5076   -2.4013 H   0  0  0  0  0  0  0  0  0  0  0  0
    2.1629    0.6398   -3.3165 H   0  0  0  0  0  0  0  0  0  0  0  0
    5.3352    0.0833    0.0159 H   0  0  0  0  0  0  0  0  0  0  0  0
   -3.4698    0.4842   -2.8612 H   0  0  0  0  0  0  0  0  0  0  0  0
   -2.7020    2.0124   -3.5131 H   0  0  0  0  0  0  0  0  0  0  0  0
   -2.1123    0.3664   -4.1089 H   0  0  0  0  0  0  0  0  0  0  0  0
   -2.3615   -3.1656    1.1278 H   0  0  0  0  0  0  0  0  0  0  0  0
   -1.6209   -4.6658    0.3737 H   0  0  0  0  0  0  0  0  0  0  0  0
   -1.5537   -4.4309    2.1962 H   0  0  0  0  0  0  0  0  0  0  0  0
  1  2  1  0  0  0  0
  1  3  1  0  0  0  0
  1  4  1  0  0  0  0
  2  5  2  0  0  0  0
  2  6  1  0  0  0  0
  3  7  1  0  0  0  0
  3  8  1  0  0  0  0
  3 21  1  6  0  0  0
  4  9  1  0  0  0  0
  4 10  2  0  0  0  0
  5 11  1  0  0  0  0
  5 12  1  0  0  0  0
  6 13  2  0  0  0  0
  6 14  1  0  0  0  0
  7 15  1  0  0  0  0
  7 16  2  0  0  0  0
  8 22  1  0  0  0  0
  8 23  1  0  0  0  0
  8 24  1  0  0  0  0
  9 17  1  0  0  0  0
  9 25  1  0  0  0  0
  9 26  1  0  0  0  0
 11 18  2  0  0  0  0
 11 27  1  0  0  0  0
 12 28  1  0  0  0  0
 12 29  1  0  0  0  0
 12 30  1  0  0  0  0
 13 18  1  0  0  0  0
 13 31  1  0  0  0  0
 14 32  1  0  0  0  0
 14 33  1  0  0  0  0
 14 34  1  0  0  0  0
 15 19  1  0  0  0  0
 17 20  1  0  0  0  0
 18 35  1  0  0  0  0
 19 36  1  0  0  0  0
 19 37  1  0  0  0  0
 19 38  1  0  0  0  0
 20 39  1  0  0  0  0
 20 40  1  0  0  0  0
 20 41  1  0  0  0  0
M  END