100414.out.mol
  Mrv0541 03111415023D          

 18 18  0  0  0  0            999 V2000
    0.0000    0.0000    0.0000 C   0  0  0  0  0  0  0  0  0  0  0  0
    1.4005    0.0000    0.0000 C   0  0  0  0  0  0  0  0  0  0  0  0
   -0.6835    1.2210    0.0000 C   0  0  0  0  0  0  0  0  0  0  0  0
   -0.7475   -1.2876   -0.0097 C   0  0  1  0  0  0  0  0  0  0  0  0
    2.1048    1.2021    0.0014 C   0  0  0  0  0  0  0  0  0  0  0  0
    0.0231    2.4230    0.0013 C   0  0  0  0  0  0  0  0  0  0  0  0
   -0.6628   -2.0030    1.3175 C   0  0  0  0  0  0  0  0  0  0  0  0
    1.4173    2.4161    0.0021 C   0  0  0  0  0  0  0  0  0  0  0  0
    1.9432   -0.9570   -0.0004 H   0  0  0  0  0  0  0  0  0  0  0  0
   -1.7836    1.2326   -0.0014 H   0  0  0  0  0  0  0  0  0  0  0  0
   -1.8256   -1.1021   -0.2638 H   0  0  0  0  0  0  0  0  0  0  0  0
   -0.3275   -1.9488   -0.8159 H   0  0  0  0  0  0  0  0  0  0  0  0
    3.2045    1.1932    0.0018 H   0  0  0  0  0  0  0  0  0  0  0  0
   -0.5221    3.3782    0.0017 H   0  0  0  0  0  0  0  0  0  0  0  0
    0.4020   -2.2070    1.5860 H   0  0  0  0  0  0  0  0  0  0  0  0
   -1.1169   -1.3850    2.1290 H   0  0  0  0  0  0  0  0  0  0  0  0
   -1.2093   -2.9754    1.2643 H   0  0  0  0  0  0  0  0  0  0  0  0
    1.9737    3.3644    0.0027 H   0  0  0  0  0  0  0  0  0  0  0  0
  1  2  2  0  0  0  0
  1  3  1  0  0  0  0
  1  4  1  0  0  0  0
  2  5  1  0  0  0  0
  2  9  1  0  0  0  0
  3  6  2  0  0  0  0
  3 10  1  0  0  0  0
  4  7  1  0  0  0  0
  4 11  1  0  0  0  0
  4 12  1  0  0  0  0
  5  8  2  0  0  0  0
  5 13  1  0  0  0  0
  6  8  1  0  0  0  0
  6 14  1  0  0  0  0
  7 15  1  0  0  0  0
  7 16  1  0  0  0  0
  7 17  1  0  0  0  0
  8 18  1  0  0  0  0
M  END