503877.out.mol
  Mrv0541 03111415023D          

 11 11  0  0  0  0            999 V2000
    0.0000    0.0000    0.0000 C   0  0  0  0  0  0  0  0  0  0  0  0
    1.4091    0.0000    0.0000 N   0  0  0  0  0  0  0  0  0  0  0  0
   -0.4255    1.4852    0.0000 C   0  0  1  0  0  0  0  0  0  0  0  0
   -0.7234   -0.9949   -0.0004 O   0  0  0  0  0  0  0  0  0  0  0  0
    1.9252    1.3159    0.0100 C   0  0  0  0  0  0  0  0  0  0  0  0
    0.8377    2.2013    0.0898 N   0  0  0  0  0  0  0  0  0  0  0  0
    3.4547    1.7053   -0.0222 S   0  0  0  0  0  0  0  0  0  0  0  0
    1.9896   -0.8015    0.0476 H   0  0  0  0  0  0  0  0  0  0  0  0
   -0.9981    1.7232   -0.9356 H   0  0  0  0  0  0  0  0  0  0  0  0
   -1.0628    1.7040    0.8984 H   0  0  0  0  0  0  0  0  0  0  0  0
    0.9265    3.1332   -0.2352 H   0  0  0  0  0  0  0  0  0  0  0  0
  1  2  1  0  0  0  0
  1  3  1  0  0  0  0
  1  4  2  0  0  0  0
  2  5  1  0  0  0  0
  2  8  1  0  0  0  0
  3  6  1  0  0  0  0
  3  9  1  0  0  0  0
  3 10  1  0  0  0  0
  5  6  1  0  0  0  0
  5  7  2  0  0  0  0
  6 11  1  0  0  0  0
M  END