131113.out.mol
  Mrv0541 03111415023D          

 24 24  0  0  0  0            999 V2000
    0.0000    0.0000    0.0000 C   0  0  0  0  0  0  0  0  0  0  0  0
    1.4012    0.0000    0.0000 C   0  0  0  0  0  0  0  0  0  0  0  0
   -0.8080    1.2352    0.0000 C   0  0  0  0  0  0  0  0  0  0  0  0
   -0.6947   -1.2176   -0.0064 C   0  0  0  0  0  0  0  0  0  0  0  0
    2.2092    1.2344    0.0437 C   0  0  0  0  0  0  0  0  0  0  0  0
    2.0959   -1.2171   -0.0368 C   0  0  0  0  0  0  0  0  0  0  0  0
   -0.3838    2.1788   -0.8957 O   0  0  0  0  0  0  0  0  0  0  0  0
   -1.8179    1.4748    0.6652 O   0  0  0  0  0  0  0  0  0  0  0  0
    0.0033   -2.4231   -0.0321 C   0  0  0  0  0  0  0  0  0  0  0  0
    1.7850    2.1457    0.9723 O   0  0  0  0  0  0  0  0  0  0  0  0
    3.2191    1.4975   -0.6126 O   0  0  0  0  0  0  0  0  0  0  0  0
    1.3980   -2.4227   -0.0537 C   0  0  0  0  0  0  0  0  0  0  0  0
   -1.1442    3.3877   -0.9538 C   0  0  0  0  0  0  0  0  0  0  0  0
    2.5453    3.3518    1.0730 C   0  0  0  0  0  0  0  0  0  0  0  0
   -1.7965   -1.2091    0.0156 H   0  0  0  0  0  0  0  0  0  0  0  0
    3.1977   -1.2078   -0.0584 H   0  0  0  0  0  0  0  0  0  0  0  0
   -0.5492   -3.3751   -0.0365 H   0  0  0  0  0  0  0  0  0  0  0  0
    1.9504   -3.3742   -0.0830 H   0  0  0  0  0  0  0  0  0  0  0  0
   -2.1972    3.1602   -1.2469 H   0  0  0  0  0  0  0  0  0  0  0  0
   -1.1241    3.8978    0.0389 H   0  0  0  0  0  0  0  0  0  0  0  0
   -0.6198    3.9884   -1.7372 H   0  0  0  0  0  0  0  0  0  0  0  0
    3.5984    3.1143    1.3579 H   0  0  0  0  0  0  0  0  0  0  0  0
    2.5251    3.8968    0.0990 H   0  0  0  0  0  0  0  0  0  0  0  0
    2.0210    3.9244    1.8772 H   0  0  0  0  0  0  0  0  0  0  0  0
  1  2  2  0  0  0  0
  1  3  1  0  0  0  0
  1  4  1  0  0  0  0
  2  5  1  0  0  0  0
  2  6  1  0  0  0  0
  3  7  1  0  0  0  0
  3  8  2  0  0  0  0
  4  9  2  0  0  0  0
  4 15  1  0  0  0  0
  5 10  1  0  0  0  0
  5 11  2  0  0  0  0
  6 12  2  0  0  0  0
  6 16  1  0  0  0  0
  7 13  1  0  0  0  0
  9 12  1  0  0  0  0
  9 17  1  0  0  0  0
 10 14  1  0  0  0  0
 12 18  1  0  0  0  0
 13 19  1  0  0  0  0
 13 20  1  0  0  0  0
 13 21  1  0  0  0  0
 14 22  1  0  0  0  0
 14 23  1  0  0  0  0
 14 24  1  0  0  0  0
M  END