70630170.out.mol
  Mrv0541 03111415023D          

 41 41  0  0  0  0            999 V2000
    0.0000    0.0000    0.0000 N   0  0  0  0  0  0  0  0  0  0  0  0
    1.4247    0.0000    0.0000 C   0  0  0  0  0  0  0  0  0  0  0  0
   -0.7402    1.1783    0.0000 C   0  0  0  0  0  0  0  0  0  0  0  0
   -0.6627   -1.2929   -0.0741 C   0  0  1  0  0  0  0  0  0  0  0  0
   -1.7630   -1.4995    0.9669 C   0  0  0  0  0  0  0  0  0  0  0  0
    2.1417    0.3351   -1.1771 C   0  0  0  0  0  0  0  0  0  0  0  0
    2.1391   -0.3509    1.1727 C   0  0  0  0  0  0  0  0  0  0  0  0
   -1.9828    1.1315   -0.0903 O   0  0  0  0  0  0  0  0  0  0  0  0
   -2.8012   -2.1457    0.8208 O   0  0  0  0  0  0  0  0  0  0  0  0
   -1.5006   -0.9779    2.2030 O   0  0  0  0  0  0  0  0  0  0  0  0
   -0.0277    2.5227    0.1548 C   0  0  1  0  0  0  0  0  0  0  0  0
   -1.2691   -1.5973   -1.4477 C   0  0  0  0  0  0  0  0  0  0  0  0
   -0.2671    3.3446   -0.9718 O   0  0  0  0  0  0  0  0  0  0  0  0
    4.2353   -0.0561   -0.0140 C   0  0  0  0  0  0  0  0  0  0  0  0
    3.5372   -0.3769    1.1453 C   0  0  0  0  0  0  0  0  0  0  0  0
    3.5393    0.3011   -1.1645 C   0  0  0  0  0  0  0  0  0  0  0  0
    1.4396   -0.6934    2.4335 C   0  0  0  0  0  0  0  0  0  0  0  0
    1.4433    0.7421   -2.4200 C   0  0  0  0  0  0  0  0  0  0  0  0
   -2.5269   -1.1260    3.1872 C   0  0  0  0  0  0  0  0  0  0  0  0
   -1.5387    3.9815   -0.9748 C   0  0  0  0  0  0  0  0  0  0  0  0
    0.1155   -2.0849    0.1611 H   0  0  0  0  0  0  0  0  0  0  0  0
   -0.4058    2.9964    1.0993 H   0  0  0  0  0  0  0  0  0  0  0  0
    1.0909    2.4214    0.1888 H   0  0  0  0  0  0  0  0  0  0  0  0
   -1.9919   -0.7985   -1.7428 H   0  0  0  0  0  0  0  0  0  0  0  0
   -0.4642   -1.6720   -2.2160 H   0  0  0  0  0  0  0  0  0  0  0  0
   -1.8158   -2.5703   -1.3955 H   0  0  0  0  0  0  0  0  0  0  0  0
    5.3352   -0.0824   -0.0209 H   0  0  0  0  0  0  0  0  0  0  0  0
    4.0887   -0.6537    2.0571 H   0  0  0  0  0  0  0  0  0  0  0  0
    4.0929    0.5608   -2.0801 H   0  0  0  0  0  0  0  0  0  0  0  0
    2.1630   -0.8289    3.2743 H   0  0  0  0  0  0  0  0  0  0  0  0
    0.7115    0.1085    2.7165 H   0  0  0  0  0  0  0  0  0  0  0  0
    0.8571   -1.6424    2.3110 H   0  0  0  0  0  0  0  0  0  0  0  0
    0.7542   -0.0669   -2.7698 H   0  0  0  0  0  0  0  0  0  0  0  0
    0.8339    1.6660   -2.2362 H   0  0  0  0  0  0  0  0  0  0  0  0
    2.1713    0.9601   -3.2396 H   0  0  0  0  0  0  0  0  0  0  0  0
   -2.1123   -0.5987    4.0810 H   0  0  0  0  0  0  0  0  0  0  0  0
   -3.4700   -0.6480    2.8289 H   0  0  0  0  0  0  0  0  0  0  0  0
   -2.7000   -2.2094    3.3937 H   0  0  0  0  0  0  0  0  0  0  0  0
   -1.5534    4.5492   -1.9386 H   0  0  0  0  0  0  0  0  0  0  0  0
   -2.3613    3.2250   -0.9443 H   0  0  0  0  0  0  0  0  0  0  0  0
   -1.6207    4.6796   -0.1056 H   0  0  0  0  0  0  0  0  0  0  0  0
  1  2  1  0  0  0  0
  1  3  1  0  0  0  0
  1  4  1  0  0  0  0
  2  6  2  0  0  0  0
  2  7  1  0  0  0  0
  3  8  2  0  0  0  0
  3 11  1  0  0  0  0
  4  5  1  0  0  0  0
  4 12  1  0  0  0  0
  4 21  1  1  0  0  0
  5  9  2  0  0  0  0
  5 10  1  0  0  0  0
  6 16  1  0  0  0  0
  6 18  1  0  0  0  0
  7 15  2  0  0  0  0
  7 17  1  0  0  0  0
 10 19  1  0  0  0  0
 11 13  1  0  0  0  0
 11 22  1  0  0  0  0
 11 23  1  0  0  0  0
 12 24  1  0  0  0  0
 12 25  1  0  0  0  0
 12 26  1  0  0  0  0
 13 20  1  0  0  0  0
 14 15  1  0  0  0  0
 14 16  2  0  0  0  0
 14 27  1  0  0  0  0
 15 28  1  0  0  0  0
 16 29  1  0  0  0  0
 17 30  1  0  0  0  0
 17 31  1  0  0  0  0
 17 32  1  0  0  0  0
 18 33  1  0  0  0  0
 18 34  1  0  0  0  0
 18 35  1  0  0  0  0
 19 36  1  0  0  0  0
 19 37  1  0  0  0  0
 19 38  1  0  0  0  0
 20 39  1  0  0  0  0
 20 40  1  0  0  0  0
 20 41  1  0  0  0  0
M  END