121733.out.mol
  Mrv0541 03111415023D          

 14 14  0  0  0  0            999 V2000
    0.0000    0.0000    0.0000 C   0  0  0  0  0  0  0  0  0  0  0  0
    1.4037    0.0000    0.0000 C   0  0  0  0  0  0  0  0  0  0  0  0
   -0.7277    1.2007    0.0000 C   0  0  0  0  0  0  0  0  0  0  0  0
   -0.7281   -1.2979   -0.0006 N   0  3  0  0  0  0  0  0  0  0  0  0
    2.0716    1.2273    0.0005 C   0  0  0  0  0  0  0  0  0  0  0  0
   -0.0351    2.4097    0.0005 C   0  0  0  0  0  0  0  0  0  0  0  0
   -1.9297   -1.2879   -0.0010 O   0  5  0  0  0  0  0  0  0  0  0  0
   -0.0957   -2.3193   -0.0006 O   0  0  0  0  0  0  0  0  0  0  0  0
    1.3585    2.4319    0.0016 C   0  0  0  0  0  0  0  0  0  0  0  0
    3.7678    1.2517    0.0012 Cl  0  0  0  0  0  0  0  0  0  0  0  0
    1.9641   -0.9519   -0.0004 H   0  0  0  0  0  0  0  0  0  0  0  0
   -1.8312    1.1842   -0.0004 H   0  0  0  0  0  0  0  0  0  0  0  0
   -0.5972    3.3567    0.0001 H   0  0  0  0  0  0  0  0  0  0  0  0
    1.8959    3.3938    0.0016 H   0  0  0  0  0  0  0  0  0  0  0  0
  1  2  2  0  0  0  0
  1  3  1  0  0  0  0
  1  4  1  0  0  0  0
  2  5  1  0  0  0  0
  2 11  1  0  0  0  0
  3  6  2  0  0  0  0
  3 12  1  0  0  0  0
  4  7  1  0  0  0  0
  4  8  2  0  0  0  0
  5  9  2  0  0  0  0
  5 10  1  0  0  0  0
  6  9  1  0  0  0  0
  6 13  1  0  0  0  0
  9 14  1  0  0  0  0
M  CHG  2   4   1   7  -1
M  END