107131.out.mol
  Mrv0541 03111415023D          

  7  6  0  0  0  0            999 V2000
    0.0000    0.0000    0.0000 C   0  0  0  0  0  0  0  0  0  0  0  0
    1.4193    0.0000    0.0000 C   0  0  0  0  0  0  0  0  0  0  0  0
   -0.7326    1.1150    0.0000 C   0  0  0  0  0  0  0  0  0  0  0  0
    2.5832   -0.0176    0.0001 N   0  0  0  0  0  0  0  0  0  0  0  0
   -0.4588   -1.0056    0.0004 H   0  0  0  0  0  0  0  0  0  0  0  0
   -1.8308    1.0804    0.0004 H   0  0  0  0  0  0  0  0  0  0  0  0
   -0.2943    2.1223   -0.0004 H   0  0  0  0  0  0  0  0  0  0  0  0
  1  2  1  0  0  0  0
  1  3  2  0  0  0  0
  1  5  1  0  0  0  0
  2  4  3  0  0  0  0
  3  6  1  0  0  0  0
  3  7  1  0  0  0  0
M  END