630206.out.mol
  Mrv0541 03111415023D          

  8  7  0  0  0  0            999 V2000
    0.0000    0.0000    0.0000 C   0  0  1  0  0  0  0  0  0  0  0  0
    1.5260    0.0000    0.0000 C   0  0  1  0  0  0  0  0  0  0  0  0
   -0.6235    1.6461    0.0000 Cl  0  0  0  0  0  0  0  0  0  0  0  0
   -0.5369   -0.8201   -1.4742 Cl  0  0  0  0  0  0  0  0  0  0  0  0
   -0.6235   -0.8680    1.3986 Cl  0  0  0  0  0  0  0  0  0  0  0  0
    2.2017    0.7804    1.4032 Cl  0  0  0  0  0  0  0  0  0  0  0  0
    1.9065   -1.0524   -0.0080 H   0  0  0  0  0  0  0  0  0  0  0  0
    1.9065    0.5483   -0.8983 H   0  0  0  0  0  0  0  0  0  0  0  0
  1  2  1  0  0  0  0
  1  3  1  0  0  0  0
  1  4  1  0  0  0  0
  1  5  1  0  0  0  0
  2  6  1  0  0  0  0
  2  7  1  0  0  0  0
  2  8  1  0  0  0  0
M  END