79005.out.mol
  Mrv0541 03111415023D          

  8  7  0  0  0  0            999 V2000
    0.0000    0.0000    0.0000 C   0  0  1  0  0  0  0  0  0  0  0  0
    1.5153    0.0000    0.0000 C   0  0  1  0  0  0  0  0  0  0  0  0
   -0.6450    1.6292    0.0000 Cl  0  0  0  0  0  0  0  0  0  0  0  0
   -0.5801   -0.8995   -1.3958 Cl  0  0  0  0  0  0  0  0  0  0  0  0
    2.1509    0.6009    1.5139 Cl  0  0  0  0  0  0  0  0  0  0  0  0
   -0.4192   -0.5100    0.9032 H   0  0  0  0  0  0  0  0  0  0  0  0
    1.9011   -1.0431   -0.1203 H   0  0  0  0  0  0  0  0  0  0  0  0
    1.9236    0.6489   -0.8131 H   0  0  0  0  0  0  0  0  0  0  0  0
  1  2  1  0  0  0  0
  1  3  1  0  0  0  0
  1  4  1  0  0  0  0
  1  6  1  0  0  0  0
  2  5  1  0  0  0  0
  2  7  1  0  0  0  0
  2  8  1  0  0  0  0
M  END