625536.out.mol
  Mrv0541 03111415023D          

 14 13  0  0  0  0            999 V2000
    0.0000    0.0000    0.0000 N   0  0  0  0  0  0  0  0  0  0  0  0
    1.3881    0.0000    0.0000 C   0  0  0  0  0  0  0  0  0  0  0  0
   -0.8282    1.1734    0.0000 C   0  0  1  0  0  0  0  0  0  0  0  0
    2.0827    1.1606    0.2469 N   0  0  0  0  0  0  0  0  0  0  0  0
    2.1873   -1.3963   -0.2650 S   0  0  0  0  0  0  0  0  0  0  0  0
   -0.8348    1.9883   -1.2851 C   0  0  0  0  0  0  0  0  0  0  0  0
   -0.4034   -0.8406   -0.3608 H   0  0  0  0  0  0  0  0  0  0  0  0
   -1.8823    0.8275    0.2116 H   0  0  0  0  0  0  0  0  0  0  0  0
   -0.5235    1.8418    0.8565 H   0  0  0  0  0  0  0  0  0  0  0  0
    1.6404    2.0117    0.4896 H   0  0  0  0  0  0  0  0  0  0  0  0
    3.0651    1.0763    0.3667 H   0  0  0  0  0  0  0  0  0  0  0  0
    0.1802    2.3907   -1.5168 H   0  0  0  0  0  0  0  0  0  0  0  0
   -1.1731    1.3702   -2.1511 H   0  0  0  0  0  0  0  0  0  0  0  0
   -1.5389    2.8467   -1.1655 H   0  0  0  0  0  0  0  0  0  0  0  0
  1  2  1  0  0  0  0
  1  3  1  0  0  0  0
  1  7  1  0  0  0  0
  2  4  1  0  0  0  0
  2  5  2  0  0  0  0
  3  6  1  0  0  0  0
  3  8  1  0  0  0  0
  3  9  1  0  0  0  0
  4 10  1  0  0  0  0
  4 11  1  0  0  0  0
  6 12  1  0  0  0  0
  6 13  1  0  0  0  0
  6 14  1  0  0  0  0
M  END