124185.out.mol
  Mrv0541 03111415023D          

 32 31  0  0  0  0            999 V2000
    0.0000    0.0000    0.0000 C   0  0  1  0  0  0  0  0  0  0  0  0
    1.5136    0.0000    0.0000 C   0  0  1  0  0  0  0  0  0  0  0  0
   -0.5498    1.4103    0.0000 C   0  0  1  0  0  0  0  0  0  0  0  0
    2.0634   -1.4103   -0.0006 C   0  0  1  0  0  0  0  0  0  0  0  0
   -2.0633    1.4104    0.0006 C   0  0  1  0  0  0  0  0  0  0  0  0
    3.5769   -1.4104    0.0000 C   0  0  1  0  0  0  0  0  0  0  0  0
   -2.6145    2.8204    0.0000 C   0  0  1  0  0  0  0  0  0  0  0  0
    4.1281   -2.8204   -0.0013 C   0  0  1  0  0  0  0  0  0  0  0  0
   -4.1213    2.8254    0.0000 C   0  0  0  0  0  0  0  0  0  0  0  0
    5.6349   -2.8254    0.0000 C   0  0  0  0  0  0  0  0  0  0  0  0
   -0.3761   -0.5502   -0.9026 H   0  0  0  0  0  0  0  0  0  0  0  0
   -0.3761   -0.5502    0.9026 H   0  0  0  0  0  0  0  0  0  0  0  0
    1.8897    0.5503   -0.9025 H   0  0  0  0  0  0  0  0  0  0  0  0
    1.8897    0.5501    0.9026 H   0  0  0  0  0  0  0  0  0  0  0  0
   -0.1734    1.9606    0.9024 H   0  0  0  0  0  0  0  0  0  0  0  0
   -0.1738    1.9604   -0.9027 H   0  0  0  0  0  0  0  0  0  0  0  0
    1.6872   -1.9609    0.9017 H   0  0  0  0  0  0  0  0  0  0  0  0
    1.6873   -1.9600   -0.9034 H   0  0  0  0  0  0  0  0  0  0  0  0
   -2.4401    0.8600   -0.9014 H   0  0  0  0  0  0  0  0  0  0  0  0
   -2.4393    0.8607    0.9036 H   0  0  0  0  0  0  0  0  0  0  0  0
    3.9536   -0.8589   -0.9015 H   0  0  0  0  0  0  0  0  0  0  0  0
    3.9530   -0.8618    0.9036 H   0  0  0  0  0  0  0  0  0  0  0  0
   -2.2358    3.3698    0.9022 H   0  0  0  0  0  0  0  0  0  0  0  0
   -2.2357    3.3689   -0.9027 H   0  0  0  0  0  0  0  0  0  0  0  0
    3.7488   -3.3703    0.9004 H   0  0  0  0  0  0  0  0  0  0  0  0
    3.7500   -3.3684   -0.9046 H   0  0  0  0  0  0  0  0  0  0  0  0
   -4.5174    2.3035   -0.9045 H   0  0  0  0  0  0  0  0  0  0  0  0
   -4.5174    2.3047    0.9053 H   0  0  0  0  0  0  0  0  0  0  0  0
   -4.5063    3.8736   -0.0009 H   0  0  0  0  0  0  0  0  0  0  0  0
    6.0317   -2.3030   -0.9040 H   0  0  0  0  0  0  0  0  0  0  0  0
    6.0303   -2.3053    0.9058 H   0  0  0  0  0  0  0  0  0  0  0  0
    6.0199   -3.8736   -0.0014 H   0  0  0  0  0  0  0  0  0  0  0  0
  1  2  1  0  0  0  0
  1  3  1  0  0  0  0
  1 11  1  0  0  0  0
  1 12  1  0  0  0  0
  2  4  1  0  0  0  0
  2 13  1  0  0  0  0
  2 14  1  0  0  0  0
  3  5  1  0  0  0  0
  3 15  1  0  0  0  0
  3 16  1  0  0  0  0
  4  6  1  0  0  0  0
  4 17  1  0  0  0  0
  4 18  1  0  0  0  0
  5  7  1  0  0  0  0
  5 19  1  0  0  0  0
  5 20  1  0  0  0  0
  6  8  1  0  0  0  0
  6 21  1  0  0  0  0
  6 22  1  0  0  0  0
  7  9  1  0  0  0  0
  7 23  1  0  0  0  0
  7 24  1  0  0  0  0
  8 10  1  0  0  0  0
  8 25  1  0  0  0  0
  8 26  1  0  0  0  0
  9 27  1  0  0  0  0
  9 28  1  0  0  0  0
  9 29  1  0  0  0  0
 10 30  1  0  0  0  0
 10 31  1  0  0  0  0
 10 32  1  0  0  0  0
M  END