541731.out.mol
  Mrv0541 03111415023D          

 12 12  0  0  0  0            999 V2000
    0.0000    0.0000    0.0000 C   0  0  0  0  0  0  0  0  0  0  0  0
    1.3981    0.0000    0.0000 C   0  0  0  0  0  0  0  0  0  0  0  0
   -0.6750    1.2243    0.0000 C   0  0  0  0  0  0  0  0  0  0  0  0
    2.1154    1.2006   -0.0005 C   0  0  0  0  0  0  0  0  0  0  0  0
    2.2326   -1.4804    0.0007 Cl  0  0  0  0  0  0  0  0  0  0  0  0
    0.0300    2.4322   -0.0005 C   0  0  0  0  0  0  0  0  0  0  0  0
   -2.3744    1.2403    0.0007 Cl  0  0  0  0  0  0  0  0  0  0  0  0
    1.4238    2.4110   -0.0005 C   0  0  0  0  0  0  0  0  0  0  0  0
   -0.5599   -0.9481    0.0004 H   0  0  0  0  0  0  0  0  0  0  0  0
    3.2158    1.1912   -0.0010 H   0  0  0  0  0  0  0  0  0  0  0  0
   -0.5096    3.3912   -0.0010 H   0  0  0  0  0  0  0  0  0  0  0  0
    1.9835    3.3587   -0.0005 H   0  0  0  0  0  0  0  0  0  0  0  0
  1  2  2  0  0  0  0
  1  3  1  0  0  0  0
  1  9  1  0  0  0  0
  2  4  1  0  0  0  0
  2  5  1  0  0  0  0
  3  6  2  0  0  0  0
  3  7  1  0  0  0  0
  4  8  2  0  0  0  0
  4 10  1  0  0  0  0
  6  8  1  0  0  0  0
  6 11  1  0  0  0  0
  8 12  1  0  0  0  0
M  END