62566.out.mol
  Mrv0541 03111415023D          

  8  7  0  0  0  0            999 V2000
    0.0000    0.0000    0.0000 C   0  0  0  0  0  0  0  0  0  0  0  0
    1.3766    0.0000    0.0000 N   0  0  0  0  0  0  0  0  0  0  0  0
   -0.6688    1.2033    0.0000 N   0  0  0  0  0  0  0  0  0  0  0  0
   -0.8265   -1.4050   -0.0006 S   0  0  0  0  0  0  0  0  0  0  0  0
    1.9228    0.8234    0.0004 H   0  0  0  0  0  0  0  0  0  0  0  0
    1.8280   -0.8839   -0.0004 H   0  0  0  0  0  0  0  0  0  0  0  0
   -0.2144    2.0807    0.0004 H   0  0  0  0  0  0  0  0  0  0  0  0
   -1.6606    1.1683    0.0004 H   0  0  0  0  0  0  0  0  0  0  0  0
  1  2  1  0  0  0  0
  1  3  1  0  0  0  0
  1  4  2  0  0  0  0
  2  5  1  0  0  0  0
  2  6  1  0  0  0  0
  3  7  1  0  0  0  0
  3  8  1  0  0  0  0
M  END