598527.out.mol
  Mrv0541 03111415023D          

 11 10  0  0  0  0            999 V2000
    0.0000    0.0000    0.0000 C   0  0  0  0  0  0  0  0  0  0  0  0
    1.3823    0.0000    0.0000 N   0  0  0  0  0  0  0  0  0  0  0  0
   -0.6830    1.1927    0.0000 N   0  0  0  0  0  0  0  0  0  0  0  0
   -0.8060   -1.4180   -0.0006 S   0  0  0  0  0  0  0  0  0  0  0  0
    2.2032    1.1647    0.0010 C   0  0  0  0  0  0  0  0  0  0  0  0
    1.8105   -0.9002    0.0004 H   0  0  0  0  0  0  0  0  0  0  0  0
   -0.2370    2.0749   -0.0004 H   0  0  0  0  0  0  0  0  0  0  0  0
   -1.6743    1.1453   -0.0004 H   0  0  0  0  0  0  0  0  0  0  0  0
    2.0130    1.7946   -0.9112 H   0  0  0  0  0  0  0  0  0  0  0  0
    2.0116    1.7943    0.9131 H   0  0  0  0  0  0  0  0  0  0  0  0
    3.2819    0.8557    0.0012 H   0  0  0  0  0  0  0  0  0  0  0  0
  1  2  1  0  0  0  0
  1  3  1  0  0  0  0
  1  4  2  0  0  0  0
  2  5  1  0  0  0  0
  2  6  1  0  0  0  0
  3  7  1  0  0  0  0
  3  8  1  0  0  0  0
  5  9  1  0  0  0  0
  5 10  1  0  0  0  0
  5 11  1  0  0  0  0
M  END