99990.out
  Mrv0541 03111415023D          

 17 17  0  0  0  0            999 V2000
   -0.0810    1.2197    0.0000 C   0  0  0  0  0  0  0  0  0  0  0  0
   -1.4714    1.2057    0.0000 C   0  0  0  0  0  0  0  0  0  0  0  0
   -2.1771   -0.0054    0.0000 C   0  0  0  0  0  0  0  0  0  0  0  0
   -1.4692   -1.2132    0.0000 C   0  0  0  0  0  0  0  0  0  0  0  0
   -0.0773   -1.2222    0.0000 C   0  0  0  0  0  0  0  0  0  0  0  0
    0.6152   -0.0008    0.0000 C   0  0  0  0  0  0  0  0  0  0  0  0
    2.1002    0.0016    0.0000 N   0  3  0  0  0  0  0  0  0  0  0  0
   -3.6576    0.0050    0.0000 C   0  0  0  0  0  0  0  0  0  0  0  0
   -2.0241    2.1578    0.0000 H   0  0  0  0  0  0  0  0  0  0  0  0
   -2.0150   -2.1694    0.0000 H   0  0  0  0  0  0  0  0  0  0  0  0
    0.4710    2.1752    0.0000 H   0  0  0  0  0  0  0  0  0  0  0  0
    0.4769   -2.1765    0.0000 H   0  0  0  0  0  0  0  0  0  0  0  0
    2.6849   -1.0491    0.0000 O   0  0  0  0  0  0  0  0  0  0  0  0
    2.6816    1.0540    0.0000 O   0  5  0  0  0  0  0  0  0  0  0  0
   -4.0738   -1.0321    0.0000 H   0  0  0  0  0  0  0  0  0  0  0  0
   -4.0394    0.5393    0.9063 H   0  0  0  0  0  0  0  0  0  0  0  0
   -4.0394    0.5393   -0.9062 H   0  0  0  0  0  0  0  0  0  0  0  0
  2  1  1  0  0  0  0
  3  2  2  0  0  0  0
  4  3  1  0  0  0  0
  5  4  2  0  0  0  0
  6  1  2  0  0  0  0
  6  5  1  0  0  0  0
  7  6  1  0  0  0  0
  8  3  1  0  0  0  0
  8 16  1  0  0  0  0
  9  2  1  0  0  0  0
 10  4  1  0  0  0  0
 11  1  1  0  0  0  0
 12  5  1  0  0  0  0
 13  7  2  0  0  0  0
 14  7  1  0  0  0  0
 15  8  1  0  0  0  0
 17  8  1  0  0  0  0
M  CHG  2   7   1  14  -1
M  END