77736.out.mol
  Mrv0541 03111415023D          

 22 24  0  0  0  0            999 V2000
    0.0000    0.0000    0.0000 C   0  0  2  0  0  0  0  0  0  0  0  0
    1.5777    0.0000    0.0000 C   0  0  1  0  0  0  0  0  0  0  0  0
   -0.3495    1.5088    0.0000 C   0  0  1  0  0  0  0  0  0  0  0  0
   -0.4173   -0.7410    1.2746 C   0  0  1  0  0  0  0  0  0  0  0  0
    1.9344    1.5087    0.0038 C   0  0  2  0  0  0  0  0  0  0  0  0
    1.9492   -0.7239    1.2558 C   0  0  0  0  0  0  0  0  0  0  0  0
    0.7911    2.0770    0.9043 C   0  0  1  0  0  0  0  0  0  0  0  0
    0.1183    2.0264   -1.3562 C   0  0  0  0  0  0  0  0  0  0  0  0
    0.8677   -1.1369    1.9399 C   0  0  0  0  0  0  0  0  0  0  0  0
    1.4718    2.0263   -1.3539 C   0  0  0  0  0  0  0  0  0  0  0  0
   -0.4098   -0.5013   -0.9064 H   0  0  0  0  0  0  0  0  0  0  0  0
    1.9998   -0.5084   -0.8986 H   0  0  0  0  0  0  0  0  0  0  0  0
   -1.3855    1.7546    0.2889 H   0  0  0  0  0  0  0  0  0  0  0  0
   -1.0249   -0.0853    1.9478 H   0  0  0  0  0  0  0  0  0  0  0  0
   -1.0295   -1.6450    1.0298 H   0  0  0  0  0  0  0  0  0  0  0  0
    2.9699    1.7490    0.2975 H   0  0  0  0  0  0  0  0  0  0  0  0
    2.9966   -0.8723    1.5236 H   0  0  0  0  0  0  0  0  0  0  0  0
    0.7913    3.1861    0.9544 H   0  0  0  0  0  0  0  0  0  0  0  0
    0.7899    1.6450    1.9279 H   0  0  0  0  0  0  0  0  0  0  0  0
   -0.5716    2.3117   -2.1457 H   0  0  0  0  0  0  0  0  0  0  0  0
    0.8555   -1.6965    2.8768 H   0  0  0  0  0  0  0  0  0  0  0  0
    2.1646    2.3114   -2.1410 H   0  0  0  0  0  0  0  0  0  0  0  0
  1  2  1  0  0  0  0
  1  3  1  0  0  0  0
  1  4  1  0  0  0  0
  1 11  1  6  0  0  0
  2  5  1  0  0  0  0
  2  6  1  0  0  0  0
  2 12  1  6  0  0  0
  3  7  1  0  0  0  0
  3  8  1  0  0  0  0
  3 13  1  1  0  0  0
  4  9  1  0  0  0  0
  4 14  1  0  0  0  0
  4 15  1  0  0  0  0
  5  7  1  0  0  0  0
  5 10  1  0  0  0  0
  5 16  1  1  0  0  0
  6  9  2  0  0  0  0
  6 17  1  0  0  0  0
  7 18  1  0  0  0  0
  7 19  1  0  0  0  0
  8 10  2  0  0  0  0
  8 20  1  0  0  0  0
  9 21  1  0  0  0  0
 10 22  1  0  0  0  0
M  END