578541.out.mol
  Mrv0541 03111415023D          

 20 20  0  0  0  0            999 V2000
    0.0000    0.0000    0.0000 C   0  0  0  0  0  0  0  0  0  0  0  0
    1.4200    0.0000    0.0000 C   0  0  0  0  0  0  0  0  0  0  0  0
   -0.6822    1.2195    0.0000 C   0  0  0  0  0  0  0  0  0  0  0  0
   -0.7875   -1.2647   -0.0154 C   0  0  1  0  0  0  0  0  0  0  0  0
    2.0993    1.2424    0.0107 C   0  0  0  0  0  0  0  0  0  0  0  0
    2.1521   -1.1902   -0.0907 N   0  0  1  0  0  0  0  0  0  0  0  0
   -0.0008    2.4329    0.0046 C   0  0  0  0  0  0  0  0  0  0  0  0
   -0.8984   -1.8939    1.3535 C   0  0  0  0  0  0  0  0  0  0  0  0
    1.3929    2.4377    0.0086 C   0  0  0  0  0  0  0  0  0  0  0  0
   -1.7836    1.2166   -0.0040 H   0  0  0  0  0  0  0  0  0  0  0  0
   -1.8237   -1.0499   -0.3969 H   0  0  0  0  0  0  0  0  0  0  0  0
   -0.3350   -1.9975   -0.7368 H   0  0  0  0  0  0  0  0  0  0  0  0
    3.1995    1.2659    0.0113 H   0  0  0  0  0  0  0  0  0  0  0  0
    3.0925   -1.1132    0.2289 H   0  0  0  0  0  0  0  0  0  0  0  0
    1.6826   -1.9908    0.2715 H   0  0  0  0  0  0  0  0  0  0  0  0
   -0.5583    3.3797    0.0041 H   0  0  0  0  0  0  0  0  0  0  0  0
    0.1070   -2.1421    1.7699 H   0  0  0  0  0  0  0  0  0  0  0  0
   -1.4048   -1.1971    2.0645 H   0  0  0  0  0  0  0  0  0  0  0  0
   -1.4963   -2.8355    1.2940 H   0  0  0  0  0  0  0  0  0  0  0  0
    1.9400    3.3923    0.0115 H   0  0  0  0  0  0  0  0  0  0  0  0
  1  2  2  0  0  0  0
  1  3  1  0  0  0  0
  1  4  1  0  0  0  0
  2  5  1  0  0  0  0
  2  6  1  0  0  0  0
  3  7  2  0  0  0  0
  3 10  1  0  0  0  0
  4  8  1  0  0  0  0
  4 11  1  0  0  0  0
  4 12  1  0  0  0  0
  5  9  2  0  0  0  0
  5 13  1  0  0  0  0
  6 14  1  0  0  0  0
  6 15  1  0  0  0  0
  7  9  1  0  0  0  0
  7 16  1  0  0  0  0
  8 17  1  0  0  0  0
  8 18  1  0  0  0  0
  8 19  1  0  0  0  0
  9 20  1  0  0  0  0
M  END