141902.out.mol
  Mrv0541 03111415023D          

 12 12  0  0  0  0            999 V2000
    0.0000    0.0000    0.0000 N   0  0  0  0  0  0  0  0  0  0  0  0
    1.3615    0.0000    0.0000 C   0  0  0  0  0  0  0  0  0  0  0  0
   -0.5884    1.2361    0.0000 C   0  0  0  0  0  0  0  0  0  0  0  0
    2.1400    1.1871    0.0005 C   0  0  0  0  0  0  0  0  0  0  0  0
    2.0480   -1.1848    0.0005 O   0  0  0  0  0  0  0  0  0  0  0  0
    0.0697    2.4382   -0.0005 N   0  0  0  0  0  0  0  0  0  0  0  0
   -2.3119    1.2366   -0.0007 S   0  0  0  0  0  0  0  0  0  0  0  0
    1.4169    2.3884   -0.0005 C   0  0  0  0  0  0  0  0  0  0  0  0
    3.2333    1.1475    0.0009 H   0  0  0  0  0  0  0  0  0  0  0  0
    1.4209   -1.9287    0.0005 H   0  0  0  0  0  0  0  0  0  0  0  0
   -2.5308    2.5452    0.0001 H   0  0  0  0  0  0  0  0  0  0  0  0
    1.9353    3.3650   -0.0005 H   0  0  0  0  0  0  0  0  0  0  0  0
  1  2  2  0  0  0  0
  1  3  1  0  0  0  0
  2  4  1  0  0  0  0
  2  5  1  0  0  0  0
  3  6  2  0  0  0  0
  3  7  1  0  0  0  0
  4  8  2  0  0  0  0
  4  9  1  0  0  0  0
  5 10  1  0  0  0  0
  6  8  1  0  0  0  0
  7 11  1  0  0  0  0
  8 12  1  0  0  0  0
M  END