89612.out.mol
  Mrv0541 03111415023D          

 14 14  0  0  0  0            999 V2000
    0.0000    0.0000    0.0000 C   0  0  0  0  0  0  0  0  0  0  0  0
    1.4065    0.0000    0.0000 C   0  0  0  0  0  0  0  0  0  0  0  0
   -0.7156    1.2081    0.0000 C   0  0  0  0  0  0  0  0  0  0  0  0
   -0.7866   -1.2699    0.0091 N   0  3  0  0  0  0  0  0  0  0  0  0
    2.0854    1.2260   -0.0319 C   0  0  0  0  0  0  0  0  0  0  0  0
    2.3091   -1.4265    0.0687 Cl  0  0  0  0  0  0  0  0  0  0  0  0
   -0.0158    2.4155   -0.0341 C   0  0  0  0  0  0  0  0  0  0  0  0
   -0.5250   -2.1326   -0.7803 O   0  5  0  0  0  0  0  0  0  0  0  0
   -1.6900   -1.3647    0.7948 O   0  0  0  0  0  0  0  0  0  0  0  0
    1.3840    2.4263   -0.0549 C   0  0  0  0  0  0  0  0  0  0  0  0
   -0.8727    3.8774   -0.0475 Cl  0  0  0  0  0  0  0  0  0  0  0  0
   -1.8195    1.2001    0.0324 H   0  0  0  0  0  0  0  0  0  0  0  0
    3.1878    1.2363   -0.0368 H   0  0  0  0  0  0  0  0  0  0  0  0
    1.9318    3.3822   -0.0847 H   0  0  0  0  0  0  0  0  0  0  0  0
  1  2  2  0  0  0  0
  1  3  1  0  0  0  0
  1  4  1  0  0  0  0
  2  5  1  0  0  0  0
  2  6  1  0  0  0  0
  3  7  2  0  0  0  0
  3 12  1  0  0  0  0
  4  8  1  0  0  0  0
  4  9  2  0  0  0  0
  5 10  2  0  0  0  0
  5 13  1  0  0  0  0
  7 10  1  0  0  0  0
  7 11  1  0  0  0  0
 10 14  1  0  0  0  0
M  CHG  2   4   1   8  -1
M  END