100005.out.mol
  Mrv0541 03111415023D          

 14 14  0  0  0  0            999 V2000
    0.0000    0.0000    0.0000 C   0  0  0  0  0  0  0  0  0  0  0  0
    1.4866    0.0000    0.0000 N   0  3  0  0  0  0  0  0  0  0  0  0
   -0.6925    1.2218    0.0000 C   0  0  0  0  0  0  0  0  0  0  0  0
   -0.6926   -1.2218    0.0005 C   0  0  0  0  0  0  0  0  0  0  0  0
    2.0675   -1.0521    0.0005 O   0  5  0  0  0  0  0  0  0  0  0  0
    2.0675    1.0521   -0.0005 O   0  0  0  0  0  0  0  0  0  0  0  0
   -2.0844    1.2162    0.0005 C   0  0  0  0  0  0  0  0  0  0  0  0
   -2.0844   -1.2162    0.0011 C   0  0  0  0  0  0  0  0  0  0  0  0
   -2.7775    0.0000    0.0005 C   0  0  0  0  0  0  0  0  0  0  0  0
   -4.4723    0.0000    0.0019 Cl  0  0  0  0  0  0  0  0  0  0  0  0
   -0.1389    2.1770   -0.0004 H   0  0  0  0  0  0  0  0  0  0  0  0
   -0.1389   -2.1770    0.0005 H   0  0  0  0  0  0  0  0  0  0  0  0
   -2.6338    2.1710    0.0010 H   0  0  0  0  0  0  0  0  0  0  0  0
   -2.6338   -2.1709    0.0019 H   0  0  0  0  0  0  0  0  0  0  0  0
  1  2  1  0  0  0  0
  1  3  2  0  0  0  0
  1  4  1  0  0  0  0
  2  5  1  0  0  0  0
  2  6  2  0  0  0  0
  3  7  1  0  0  0  0
  3 11  1  0  0  0  0
  4  8  2  0  0  0  0
  4 12  1  0  0  0  0
  7  9  2  0  0  0  0
  7 13  1  0  0  0  0
  8  9  1  0  0  0  0
  8 14  1  0  0  0  0
  9 10  1  0  0  0  0
M  CHG  2   2   1   5  -1
M  END