99876.out.mol
  Mrv0541 03111415023D          

 24 24  0  0  0  0            999 V2000
    0.0000    0.0000    0.0000 C   0  0  0  0  0  0  0  0  0  0  0  0
    1.4964    0.0000    0.0000 C   0  0  1  0  0  0  0  0  0  0  0  0
   -0.7029    1.2103    0.0000 C   0  0  0  0  0  0  0  0  0  0  0  0
   -0.7197   -1.2010    0.0005 C   0  0  0  0  0  0  0  0  0  0  0  0
    2.0413   -0.6735    1.2454 C   0  0  0  0  0  0  0  0  0  0  0  0
    2.0410   -0.6701   -1.2473 C   0  0  0  0  0  0  0  0  0  0  0  0
   -2.0957    1.2198    0.0005 C   0  0  0  0  0  0  0  0  0  0  0  0
   -2.1117   -1.1919    0.0011 C   0  0  0  0  0  0  0  0  0  0  0  0
   -2.8140    0.0191    0.0003 C   0  0  0  0  0  0  0  0  0  0  0  0
   -4.2945    0.0281   -0.0150 C   0  0  0  0  0  0  0  0  0  0  0  0
    1.8548    1.0709    0.0014 H   0  0  0  0  0  0  0  0  0  0  0  0
   -0.1532    2.1636    0.0005 H   0  0  0  0  0  0  0  0  0  0  0  0
   -0.1793   -2.1597    0.0014 H   0  0  0  0  0  0  0  0  0  0  0  0
    1.7262   -1.7440    1.2843 H   0  0  0  0  0  0  0  0  0  0  0  0
    3.1571   -0.6318    1.2447 H   0  0  0  0  0  0  0  0  0  0  0  0
    1.6645   -0.1601    2.1620 H   0  0  0  0  0  0  0  0  0  0  0  0
    1.7250   -1.7402   -1.2895 H   0  0  0  0  0  0  0  0  0  0  0  0
    1.6649   -0.1536   -2.1625 H   0  0  0  0  0  0  0  0  0  0  0  0
    3.1569   -0.6294   -1.2463 H   0  0  0  0  0  0  0  0  0  0  0  0
   -2.6358    2.1783    0.0010 H   0  0  0  0  0  0  0  0  0  0  0  0
   -2.6653   -2.1426    0.0029 H   0  0  0  0  0  0  0  0  0  0  0  0
   -4.6652    0.0092   -1.0712 H   0  0  0  0  0  0  0  0  0  0  0  0
   -4.7057   -0.8661    0.5150 H   0  0  0  0  0  0  0  0  0  0  0  0
   -4.6952    0.9472    0.4791 H   0  0  0  0  0  0  0  0  0  0  0  0
  1  2  1  0  0  0  0
  1  3  2  0  0  0  0
  1  4  1  0  0  0  0
  2  5  1  0  0  0  0
  2  6  1  0  0  0  0
  2 11  1  0  0  0  0
  3  7  1  0  0  0  0
  3 12  1  0  0  0  0
  4  8  2  0  0  0  0
  4 13  1  0  0  0  0
  5 14  1  0  0  0  0
  5 15  1  0  0  0  0
  5 16  1  0  0  0  0
  6 17  1  0  0  0  0
  6 18  1  0  0  0  0
  6 19  1  0  0  0  0
  7  9  2  0  0  0  0
  7 20  1  0  0  0  0
  8  9  1  0  0  0  0
  8 21  1  0  0  0  0
  9 10  1  0  0  0  0
 10 22  1  0  0  0  0
 10 23  1  0  0  0  0
 10 24  1  0  0  0  0
M  END