106412.out.mol
  Mrv0541 03111415023D          

 13 13  0  0  0  0            999 V2000
    0.0000    0.0000    0.0000 C   0  0  0  0  0  0  0  0  0  0  0  0
    1.4055    0.0000    0.0000 C   0  0  0  0  0  0  0  0  0  0  0  0
   -0.7170    1.2048    0.0000 C   0  0  0  0  0  0  0  0  0  0  0  0
   -0.6128   -1.2301   -0.0006 O   0  0  0  0  0  0  0  0  0  0  0  0
    2.0824    1.2139   -0.0005 C   0  0  0  0  0  0  0  0  0  0  0  0
   -0.0233    2.4122   -0.0005 C   0  0  0  0  0  0  0  0  0  0  0  0
    1.3740    2.4216   -0.0016 C   0  0  0  0  0  0  0  0  0  0  0  0
    2.2995    4.0483   -0.0016 Br  0  0  0  0  0  0  0  0  0  0  0  0
    1.9491   -0.9553    0.0004 H   0  0  0  0  0  0  0  0  0  0  0  0
   -1.8160    1.1981    0.0004 H   0  0  0  0  0  0  0  0  0  0  0  0
   -1.5709   -1.0882   -0.0001 H   0  0  0  0  0  0  0  0  0  0  0  0
    3.1842    1.2155   -0.0010 H   0  0  0  0  0  0  0  0  0  0  0  0
   -0.5882    3.3579   -0.0010 H   0  0  0  0  0  0  0  0  0  0  0  0
  1  2  2  0  0  0  0
  1  3  1  0  0  0  0
  1  4  1  0  0  0  0
  2  5  1  0  0  0  0
  2  9  1  0  0  0  0
  3  6  2  0  0  0  0
  3 10  1  0  0  0  0
  4 11  1  0  0  0  0
  5  7  2  0  0  0  0
  5 12  1  0  0  0  0
  6  7  1  0  0  0  0
  6 13  1  0  0  0  0
  7  8  1  0  0  0  0
M  END