149304.out.mol
  Mrv0541 03111415023D          

 15 16  0  0  0  0            999 V2000
    0.0000    0.0000    0.0000 C   0  0  0  0  0  0  0  0  0  0  0  0
    1.4362    0.0000    0.0000 C   0  0  0  0  0  0  0  0  0  0  0  0
   -0.5773    1.2760    0.0000 N   0  0  0  0  0  0  0  0  0  0  0  0
   -0.6986   -1.2247   -0.0005 C   0  0  0  0  0  0  0  0  0  0  0  0
    2.0007    1.5919    0.0007 S   0  0  0  0  0  0  0  0  0  0  0  0
    2.1363   -1.2077    0.0005 C   0  0  0  0  0  0  0  0  0  0  0  0
    0.3748    2.2018   -0.0006 C   0  0  0  0  0  0  0  0  0  0  0  0
    0.0240   -2.4058   -0.0005 C   0  0  0  0  0  0  0  0  0  0  0  0
    1.4293   -2.4004    0.0005 C   0  0  0  0  0  0  0  0  0  0  0  0
    0.1521    3.8656   -0.0014 S   0  0  0  0  0  0  0  0  0  0  0  0
   -1.7986   -1.2295   -0.0001 H   0  0  0  0  0  0  0  0  0  0  0  0
    3.2363   -1.2094    0.0001 H   0  0  0  0  0  0  0  0  0  0  0  0
   -0.5081   -3.3695   -0.0005 H   0  0  0  0  0  0  0  0  0  0  0  0
    1.9719   -3.3576    0.0014 H   0  0  0  0  0  0  0  0  0  0  0  0
   -1.1720    3.9529   -0.0019 H   0  0  0  0  0  0  0  0  0  0  0  0
  1  2  2  0  0  0  0
  1  3  1  0  0  0  0
  1  4  1  0  0  0  0
  2  5  1  0  0  0  0
  2  6  1  0  0  0  0
  3  7  2  0  0  0  0
  4  8  2  0  0  0  0
  4 11  1  0  0  0  0
  5  7  1  0  0  0  0
  6  9  2  0  0  0  0
  6 12  1  0  0  0  0
  7 10  1  0  0  0  0
  8  9  1  0  0  0  0
  8 13  1  0  0  0  0
  9 14  1  0  0  0  0
 10 15  1  0  0  0  0
M  END