121879.out.mol
  Mrv0541 03111415023D          

 16 16  0  0  0  0            999 V2000
    0.0000    0.0000    0.0000 C   0  0  0  0  0  0  0  0  0  0  0  0
    1.4037    0.0000    0.0000 C   0  0  0  0  0  0  0  0  0  0  0  0
   -0.7121    1.2135    0.0000 C   0  0  0  0  0  0  0  0  0  0  0  0
   -0.7340   -1.2835   -0.0006 N   0  3  0  0  0  0  0  0  0  0  0  0
    2.0896    1.2078   -0.0005 C   0  0  0  0  0  0  0  0  0  0  0  0
   -0.0284    2.4141   -0.0005 C   0  0  0  0  0  0  0  0  0  0  0  0
   -0.1123   -2.3133    0.0002 O   0  5  0  0  0  0  0  0  0  0  0  0
   -1.9371   -1.2672   -0.0024 O   0  0  0  0  0  0  0  0  0  0  0  0
    1.3946    2.4530    0.0042 C   0  0  0  0  0  0  0  0  0  0  0  0
    3.7918    1.1786   -0.0058 Cl  0  0  0  0  0  0  0  0  0  0  0  0
    2.0598    3.6483    0.0450 N   0  0  0  0  0  0  0  0  0  0  0  0
    1.9577   -0.9571   -0.0004 H   0  0  0  0  0  0  0  0  0  0  0  0
   -1.8168    1.2040   -0.0004 H   0  0  0  0  0  0  0  0  0  0  0  0
   -0.5984    3.3560   -0.0001 H   0  0  0  0  0  0  0  0  0  0  0  0
    1.5511    4.4887   -0.0675 H   0  0  0  0  0  0  0  0  0  0  0  0
    3.0444    3.6698   -0.0569 H   0  0  0  0  0  0  0  0  0  0  0  0
  1  2  2  0  0  0  0
  1  3  1  0  0  0  0
  1  4  1  0  0  0  0
  2  5  1  0  0  0  0
  2 12  1  0  0  0  0
  3  6  2  0  0  0  0
  3 13  1  0  0  0  0
  4  7  1  0  0  0  0
  4  8  2  0  0  0  0
  5  9  2  0  0  0  0
  5 10  1  0  0  0  0
  6  9  1  0  0  0  0
  6 14  1  0  0  0  0
  9 11  1  0  0  0  0
 11 15  1  0  0  0  0
 11 16  1  0  0  0  0
M  CHG  2   4   1   7  -1
M  END