51285.out.mol
  Mrv0541 03111415023D          

 17 17  0  0  0  0            999 V2000
    0.0000    0.0000    0.0000 C   0  0  0  0  0  0  0  0  0  0  0  0
    1.4096    0.0000    0.0000 C   0  0  0  0  0  0  0  0  0  0  0  0
   -0.7086    1.2258    0.0000 C   0  0  0  0  0  0  0  0  0  0  0  0
   -0.6904   -1.3082    0.0006 N   0  3  0  0  0  0  0  0  0  0  0  0
    2.0958    1.2133   -0.0005 C   0  0  0  0  0  0  0  0  0  0  0  0
    0.0202    2.4438   -0.0006 C   0  0  0  0  0  0  0  0  0  0  0  0
   -2.0527    1.3902    0.0005 O   0  0  0  0  0  0  0  0  0  0  0  0
   -1.8971   -1.3287    0.0001 O   0  5  0  0  0  0  0  0  0  0  0  0
   -0.0394   -2.3140    0.0015 O   0  0  0  0  0  0  0  0  0  0  0  0
    1.3983    2.4430   -0.0006 C   0  0  0  0  0  0  0  0  0  0  0  0
    3.5813    1.2187    0.0000 N   0  3  0  0  0  0  0  0  0  0  0  0
    4.1523    2.2755   -0.0009 O   0  5  0  0  0  0  0  0  0  0  0  0
    4.1643    0.1691    0.0014 O   0  0  0  0  0  0  0  0  0  0  0  0
    1.9643   -0.9620    0.0004 H   0  0  0  0  0  0  0  0  0  0  0  0
   -0.5491    3.3877   -0.0010 H   0  0  0  0  0  0  0  0  0  0  0  0
   -2.5326    0.5422    0.0005 H   0  0  0  0  0  0  0  0  0  0  0  0
    1.9608    3.3952   -0.0006 H   0  0  0  0  0  0  0  0  0  0  0  0
  1  2  2  0  0  0  0
  1  3  1  0  0  0  0
  1  4  1  0  0  0  0
  2  5  1  0  0  0  0
  2 14  1  0  0  0  0
  3  6  2  0  0  0  0
  3  7  1  0  0  0  0
  4  8  1  0  0  0  0
  4  9  2  0  0  0  0
  5 10  2  0  0  0  0
  5 11  1  0  0  0  0
  6 10  1  0  0  0  0
  6 15  1  0  0  0  0
  7 16  1  0  0  0  0
 10 17  1  0  0  0  0
 11 12  1  0  0  0  0
 11 13  2  0  0  0  0
M  CHG  4   4   1   8  -1  11   1  12  -1
M  END