122667.out.mol
  Mrv0541 03111415023D          

 26 27  0  0  0  0            999 V2000
    0.0000    0.0000    0.0000 C   0  0  0  0  0  0  0  0  0  0  0  0
    1.4374    0.0000    0.0000 N   0  0  2  0  0  0  0  0  0  0  0  0
   -0.6898    1.2325    0.0000 C   0  0  0  0  0  0  0  0  0  0  0  0
   -0.7431   -1.1907   -0.1265 C   0  0  0  0  0  0  0  0  0  0  0  0
    2.1505   -1.0145    0.5705 N   0  0  1  0  0  0  0  0  0  0  0  0
   -2.0733    1.2630   -0.1386 C   0  0  0  0  0  0  0  0  0  0  0  0
   -2.1285   -1.1418   -0.2567 C   0  0  0  0  0  0  0  0  0  0  0  0
    1.9632   -1.3823    1.9473 C   0  0  0  0  0  0  0  0  0  0  0  0
   -2.7993    0.0794   -0.2652 C   0  0  0  0  0  0  0  0  0  0  0  0
    1.6823   -0.4234    2.9411 C   0  0  0  0  0  0  0  0  0  0  0  0
    2.1894   -2.7197    2.3409 C   0  0  0  0  0  0  0  0  0  0  0  0
    1.6393   -0.7956    4.2821 C   0  0  0  0  0  0  0  0  0  0  0  0
    2.1499   -3.0724    3.6856 C   0  0  0  0  0  0  0  0  0  0  0  0
    1.8732   -2.1157    4.6615 C   0  0  0  0  0  0  0  0  0  0  0  0
    1.7760    0.8772    0.3792 H   0  0  0  0  0  0  0  0  0  0  0  0
   -0.1371    2.1793    0.0989 H   0  0  0  0  0  0  0  0  0  0  0  0
   -0.2442   -2.1710   -0.1283 H   0  0  0  0  0  0  0  0  0  0  0  0
    2.0559   -1.8365   -0.0155 H   0  0  0  0  0  0  0  0  0  0  0  0
   -2.5962    2.2312   -0.1441 H   0  0  0  0  0  0  0  0  0  0  0  0
   -2.6951   -2.0802   -0.3550 H   0  0  0  0  0  0  0  0  0  0  0  0
   -3.8930    0.1098   -0.3702 H   0  0  0  0  0  0  0  0  0  0  0  0
    1.4976    0.6281    2.6760 H   0  0  0  0  0  0  0  0  0  0  0  0
    2.4093   -3.4917    1.5876 H   0  0  0  0  0  0  0  0  0  0  0  0
    1.4191   -0.0354    5.0467 H   0  0  0  0  0  0  0  0  0  0  0  0
    2.3352   -4.1171    3.9777 H   0  0  0  0  0  0  0  0  0  0  0  0
    1.8392   -2.4014    5.7223 H   0  0  0  0  0  0  0  0  0  0  0  0
  1  2  1  0  0  0  0
  1  3  2  0  0  0  0
  1  4  1  0  0  0  0
  2  5  1  0  0  0  0
  2 15  1  0  0  0  0
  3  6  1  0  0  0  0
  3 16  1  0  0  0  0
  4  7  2  0  0  0  0
  4 17  1  0  0  0  0
  5  8  1  0  0  0  0
  5 18  1  0  0  0  0
  6  9  2  0  0  0  0
  6 19  1  0  0  0  0
  7  9  1  0  0  0  0
  7 20  1  0  0  0  0
  8 10  2  0  0  0  0
  8 11  1  0  0  0  0
  9 21  1  0  0  0  0
 10 12  1  0  0  0  0
 10 22  1  0  0  0  0
 11 13  2  0  0  0  0
 11 23  1  0  0  0  0
 12 14  2  0  0  0  0
 12 24  1  0  0  0  0
 13 14  1  0  0  0  0
 13 25  1  0  0  0  0
 14 26  1  0  0  0  0
M  END