608935.out.mol
  Mrv0541 03111415023D          

 12 12  0  0  0  0            999 V2000
    0.0000    0.0000    0.0000 C   0  0  0  0  0  0  0  0  0  0  0  0
    1.4053    0.0000    0.0000 C   0  0  0  0  0  0  0  0  0  0  0  0
   -0.7071    1.2144    0.0000 C   0  0  0  0  0  0  0  0  0  0  0  0
   -0.8436   -1.4674   -0.0007 Cl  0  0  0  0  0  0  0  0  0  0  0  0
    2.0971    1.2219    0.0005 C   0  0  0  0  0  0  0  0  0  0  0  0
    2.2580   -1.4607    0.0007 Cl  0  0  0  0  0  0  0  0  0  0  0  0
    0.0006    2.4271   -0.0005 C   0  0  0  0  0  0  0  0  0  0  0  0
   -2.3985    1.2162   -0.0007 Cl  0  0  0  0  0  0  0  0  0  0  0  0
    1.3968    2.4298   -0.0016 C   0  0  0  0  0  0  0  0  0  0  0  0
    3.7905    1.2639    0.0012 Cl  0  0  0  0  0  0  0  0  0  0  0  0
   -0.8152    3.9116   -0.0012 Cl  0  0  0  0  0  0  0  0  0  0  0  0
    1.9466    3.3860   -0.0025 H   0  0  0  0  0  0  0  0  0  0  0  0
  1  2  2  0  0  0  0
  1  3  1  0  0  0  0
  1  4  1  0  0  0  0
  2  5  1  0  0  0  0
  2  6  1  0  0  0  0
  3  7  2  0  0  0  0
  3  8  1  0  0  0  0
  5  9  2  0  0  0  0
  5 10  1  0  0  0  0
  7  9  1  0  0  0  0
  7 11  1  0  0  0  0
  9 12  1  0  0  0  0
M  END