95501.out.mol
  Mrv0541 03111415023D          

 12 12  0  0  0  0            999 V2000
    0.0000    0.0000    0.0000 C   0  0  0  0  0  0  0  0  0  0  0  0
    1.4032    0.0000    0.0000 C   0  0  0  0  0  0  0  0  0  0  0  0
   -0.6960    1.2146    0.0000 C   0  0  0  0  0  0  0  0  0  0  0  0
   -0.8769   -1.4522   -0.0006 Cl  0  0  0  0  0  0  0  0  0  0  0  0
    2.0992    1.2146    0.0005 C   0  0  0  0  0  0  0  0  0  0  0  0
    2.2801   -1.4522   -0.0006 Cl  0  0  0  0  0  0  0  0  0  0  0  0
    0.0040    2.4185    0.0005 C   0  0  0  0  0  0  0  0  0  0  0  0
    1.3992    2.4185    0.0016 C   0  0  0  0  0  0  0  0  0  0  0  0
   -1.7970    1.2150   -0.0004 H   0  0  0  0  0  0  0  0  0  0  0  0
    3.2002    1.2150    0.0001 H   0  0  0  0  0  0  0  0  0  0  0  0
   -0.5475    3.3705    0.0010 H   0  0  0  0  0  0  0  0  0  0  0  0
    1.9507    3.3705    0.0025 H   0  0  0  0  0  0  0  0  0  0  0  0
  1  2  2  0  0  0  0
  1  3  1  0  0  0  0
  1  4  1  0  0  0  0
  2  5  1  0  0  0  0
  2  6  1  0  0  0  0
  3  7  2  0  0  0  0
  3  9  1  0  0  0  0
  5  8  2  0  0  0  0
  5 10  1  0  0  0  0
  7  8  1  0  0  0  0
  7 11  1  0  0  0  0
  8 12  1  0  0  0  0
M  END