106467.out.mol
  Mrv0541 03111415023D          

 12 12  0  0  0  0            999 V2000
    0.0000    0.0000    0.0000 C   0  0  0  0  0  0  0  0  0  0  0  0
    1.3987    0.0000    0.0000 C   0  0  0  0  0  0  0  0  0  0  0  0
   -0.7114    1.2042    0.0000 C   0  0  0  0  0  0  0  0  0  0  0  0
   -0.8422   -1.4757    0.0007 Cl  0  0  0  0  0  0  0  0  0  0  0  0
    2.0892    1.2100   -0.0005 C   0  0  0  0  0  0  0  0  0  0  0  0
   -0.0209    2.4143   -0.0005 C   0  0  0  0  0  0  0  0  0  0  0  0
    1.3778    2.4142   -0.0016 C   0  0  0  0  0  0  0  0  0  0  0  0
    2.2200    3.8899   -0.0016 Cl  0  0  0  0  0  0  0  0  0  0  0  0
    1.9557   -0.9494    0.0004 H   0  0  0  0  0  0  0  0  0  0  0  0
   -1.8122    1.2010    0.0004 H   0  0  0  0  0  0  0  0  0  0  0  0
    3.1900    1.2133   -0.0010 H   0  0  0  0  0  0  0  0  0  0  0  0
   -0.5779    3.3637   -0.0001 H   0  0  0  0  0  0  0  0  0  0  0  0
  1  2  2  0  0  0  0
  1  3  1  0  0  0  0
  1  4  1  0  0  0  0
  2  5  1  0  0  0  0
  2  9  1  0  0  0  0
  3  6  2  0  0  0  0
  3 10  1  0  0  0  0
  5  7  2  0  0  0  0
  5 11  1  0  0  0  0
  6  7  1  0  0  0  0
  6 12  1  0  0  0  0
  7  8  1  0  0  0  0
M  END