92524.out.mol
  Mrv0541 03111415023D          

 22 23  0  0  0  0            999 V2000
    0.0000    0.0000    0.0000 C   0  0  0  0  0  0  0  0  0  0  0  0
    1.4618    0.0000    0.0000 C   0  0  0  0  0  0  0  0  0  0  0  0
   -0.7104    1.2092    0.0000 C   0  0  0  0  0  0  0  0  0  0  0  0
   -0.7104   -1.2092   -0.0005 C   0  0  0  0  0  0  0  0  0  0  0  0
    2.1722    0.9178   -0.7872 C   0  0  0  0  0  0  0  0  0  0  0  0
    2.1722   -0.9177    0.7873 C   0  0  0  0  0  0  0  0  0  0  0  0
   -2.1037    1.2066    0.0005 C   0  0  0  0  0  0  0  0  0  0  0  0
   -2.1037   -1.2066   -0.0011 C   0  0  0  0  0  0  0  0  0  0  0  0
    3.5655    0.9155   -0.7860 C   0  0  0  0  0  0  0  0  0  0  0  0
    3.5655   -0.9155    0.7861 C   0  0  0  0  0  0  0  0  0  0  0  0
   -2.8032    0.0000   -0.0018 C   0  0  0  0  0  0  0  0  0  0  0  0
    4.2650   -0.0012   -0.0013 C   0  0  0  0  0  0  0  0  0  0  0  0
   -0.1623    2.1633    0.0067 H   0  0  0  0  0  0  0  0  0  0  0  0
   -0.1623   -2.1633   -0.0077 H   0  0  0  0  0  0  0  0  0  0  0  0
    1.6241    1.6376   -1.4135 H   0  0  0  0  0  0  0  0  0  0  0  0
    1.6241   -1.6377    1.4135 H   0  0  0  0  0  0  0  0  0  0  0  0
   -2.6520    2.1601    0.0039 H   0  0  0  0  0  0  0  0  0  0  0  0
   -2.6521   -2.1601   -0.0048 H   0  0  0  0  0  0  0  0  0  0  0  0
    4.1139    1.6370   -1.4092 H   0  0  0  0  0  0  0  0  0  0  0  0
    4.1139   -1.6369    1.4094 H   0  0  0  0  0  0  0  0  0  0  0  0
   -3.9027    0.0000   -0.0018 H   0  0  0  0  0  0  0  0  0  0  0  0
    5.3645   -0.0012   -0.0013 H   0  0  0  0  0  0  0  0  0  0  0  0
  1  2  1  0  0  0  0
  1  3  2  0  0  0  0
  1  4  1  0  0  0  0
  2  5  2  0  0  0  0
  2  6  1  0  0  0  0
  3  7  1  0  0  0  0
  3 13  1  0  0  0  0
  4  8  2  0  0  0  0
  4 14  1  0  0  0  0
  5  9  1  0  0  0  0
  5 15  1  0  0  0  0
  6 10  2  0  0  0  0
  6 16  1  0  0  0  0
  7 11  2  0  0  0  0
  7 17  1  0  0  0  0
  8 11  1  0  0  0  0
  8 18  1  0  0  0  0
  9 12  2  0  0  0  0
  9 19  1  0  0  0  0
 10 12  1  0  0  0  0
 10 20  1  0  0  0  0
 11 21  1  0  0  0  0
 12 22  1  0  0  0  0
M  END