532558.out.mol
  Mrv0541 03111415023D          

 16 16  0  0  0  0            999 V2000
    0.0000    0.0000    0.0000 C   0  0  0  0  0  0  0  0  0  0  0  0
    1.2342    0.0000    0.0000 N   0  0  0  0  0  0  0  0  0  0  0  0
    2.2886    0.9182    0.0000 C   0  0  0  0  0  0  0  0  0  0  0  0
   -1.4379   -0.2288    0.0001 S   0  0  0  0  0  0  0  0  0  0  0  0
    2.0581    2.1392   -0.0005 O   0  0  0  0  0  0  0  0  0  0  0  0
    3.6637    0.3606    0.0006 C   0  0  0  0  0  0  0  0  0  0  0  0
    3.9325   -1.0126    0.0006 C   0  0  0  0  0  0  0  0  0  0  0  0
    4.7260    1.2790    0.0012 C   0  0  0  0  0  0  0  0  0  0  0  0
    6.0417    0.8232    0.0023 C   0  0  0  0  0  0  0  0  0  0  0  0
    5.2539   -1.4605    0.0017 C   0  0  0  0  0  0  0  0  0  0  0  0
    6.3072   -0.5468    0.0023 C   0  0  0  0  0  0  0  0  0  0  0  0
    3.1157   -1.7510    0.0005 H   0  0  0  0  0  0  0  0  0  0  0  0
    4.5062    2.3596    0.0007 H   0  0  0  0  0  0  0  0  0  0  0  0
    6.8709    1.5461    0.0023 H   0  0  0  0  0  0  0  0  0  0  0  0
    5.4623   -2.5407    0.0021 H   0  0  0  0  0  0  0  0  0  0  0  0
    7.3475   -0.9056    0.0027 H   0  0  0  0  0  0  0  0  0  0  0  0
  1  2  2  0  0  0  0
  1  4  2  0  0  0  0
  2  3  1  0  0  0  0
  3  5  2  0  0  0  0
  3  6  1  0  0  0  0
  6  7  2  0  0  0  0
  6  8  1  0  0  0  0
  7 10  1  0  0  0  0
  7 12  1  0  0  0  0
  8  9  2  0  0  0  0
  8 13  1  0  0  0  0
  9 11  1  0  0  0  0
  9 14  1  0  0  0  0
 10 11  2  0  0  0  0
 10 15  1  0  0  0  0
 11 16  1  0  0  0  0
M  END