1982474.out.mol
  Mrv0541 03111415023D          

 35 36  0  0  0  0            999 V2000
    0.0000    0.0000    0.0000 C   0  0  0  0  0  0  0  0  0  0  0  0
    1.4176    0.0000    0.0000 N   0  0  0  0  0  0  0  0  0  0  0  0
   -0.6799    1.2364    0.0000 N   0  0  0  0  0  0  0  0  0  0  0  0
   -0.6203   -1.0884   -0.0165 O   0  0  0  0  0  0  0  0  0  0  0  0
    2.0667   -1.2588    0.2685 C   0  0  0  0  0  0  0  0  0  0  0  0
    2.1442    1.1836    0.3671 C   0  0  0  0  0  0  0  0  0  0  0  0
   -2.0581    1.3594   -0.2617 C   0  0  0  0  0  0  0  0  0  0  0  0
   -2.9955    0.3808    0.1352 C   0  0  0  0  0  0  0  0  0  0  0  0
   -2.5267    2.5412   -0.8865 C   0  0  0  0  0  0  0  0  0  0  0  0
   -4.3540    0.5746   -0.0883 C   0  0  0  0  0  0  0  0  0  0  0  0
   -3.8851    2.7404   -1.0956 C   0  0  0  0  0  0  0  0  0  0  0  0
   -4.7950    1.7560   -0.6962 C   0  0  0  0  0  0  0  0  0  0  0  0
   -6.1740    1.9514   -0.7655 O   0  0  0  0  0  0  0  0  0  0  0  0
   -6.6874    2.3226   -2.0019 C   0  0  0  0  0  0  0  0  0  0  0  0
   -7.9607    2.9164   -1.9606 C   0  0  0  0  0  0  0  0  0  0  0  0
   -6.0425    2.0798   -3.2199 C   0  0  0  0  0  0  0  0  0  0  0  0
   -8.5853    3.2631   -3.1535 C   0  0  0  0  0  0  0  0  0  0  0  0
   -6.6752    2.4347   -4.4091 C   0  0  0  0  0  0  0  0  0  0  0  0
   -7.9419    3.0247   -4.3736 C   0  0  0  0  0  0  0  0  0  0  0  0
   -8.7108    3.4572   -5.8276 Cl  0  0  0  0  0  0  0  0  0  0  0  0
   -0.1480    2.0559   -0.1991 H   0  0  0  0  0  0  0  0  0  0  0  0
    3.0581   -1.2627   -0.2575 H   0  0  0  0  0  0  0  0  0  0  0  0
    2.2354   -1.4107    1.3687 H   0  0  0  0  0  0  0  0  0  0  0  0
    1.4397   -2.1044   -0.1219 H   0  0  0  0  0  0  0  0  0  0  0  0
    2.0198    1.9666   -0.4295 H   0  0  0  0  0  0  0  0  0  0  0  0
    1.8036    1.6084    1.3504 H   0  0  0  0  0  0  0  0  0  0  0  0
    3.2378    0.9433    0.4478 H   0  0  0  0  0  0  0  0  0  0  0  0
   -2.6571   -0.5544    0.6129 H   0  0  0  0  0  0  0  0  0  0  0  0
   -1.8211    3.3228   -1.2076 H   0  0  0  0  0  0  0  0  0  0  0  0
   -5.0845   -0.1873    0.2222 H   0  0  0  0  0  0  0  0  0  0  0  0
   -4.2470    3.6609   -1.5771 H   0  0  0  0  0  0  0  0  0  0  0  0
   -8.4495    3.0921   -0.9917 H   0  0  0  0  0  0  0  0  0  0  0  0
   -5.0468    1.6123   -3.2368 H   0  0  0  0  0  0  0  0  0  0  0  0
   -9.5839    3.7261   -3.1335 H   0  0  0  0  0  0  0  0  0  0  0  0
   -6.1758    2.2451   -5.3715 H   0  0  0  0  0  0  0  0  0  0  0  0
  1  2  1  0  0  0  0
  1  3  1  0  0  0  0
  1  4  2  0  0  0  0
  2  5  1  0  0  0  0
  2  6  1  0  0  0  0
  3  7  1  0  0  0  0
  3 21  1  0  0  0  0
  5 22  1  0  0  0  0
  5 23  1  0  0  0  0
  5 24  1  0  0  0  0
  6 25  1  0  0  0  0
  6 26  1  0  0  0  0
  6 27  1  0  0  0  0
  7  8  2  0  0  0  0
  7  9  1  0  0  0  0
  8 10  1  0  0  0  0
  8 28  1  0  0  0  0
  9 11  2  0  0  0  0
  9 29  1  0  0  0  0
 10 12  2  0  0  0  0
 10 30  1  0  0  0  0
 11 12  1  0  0  0  0
 11 31  1  0  0  0  0
 12 13  1  0  0  0  0
 13 14  1  0  0  0  0
 14 15  2  0  0  0  0
 14 16  1  0  0  0  0
 15 17  1  0  0  0  0
 15 32  1  0  0  0  0
 16 18  2  0  0  0  0
 16 33  1  0  0  0  0
 17 19  2  0  0  0  0
 17 34  1  0  0  0  0
 18 19  1  0  0  0  0
 18 35  1  0  0  0  0
 19 20  1  0  0  0  0
M  END