90131.out.mol
  Mrv0541 03111415023D          

 18 19  0  0  0  0            999 V2000
    0.0000    0.0000    0.0000 C   0  0  0  0  0  0  0  0  0  0  0  0
    1.4205    0.0000    0.0000 C   0  0  0  0  0  0  0  0  0  0  0  0
   -0.7055    1.2342    0.0000 C   0  0  0  0  0  0  0  0  0  0  0  0
   -0.6952   -1.2408   -0.0006 C   0  0  0  0  0  0  0  0  0  0  0  0
    2.0930    1.2586    0.0006 C   0  0  0  0  0  0  0  0  0  0  0  0
    2.1053   -1.2463   -0.0006 C   0  0  0  0  0  0  0  0  0  0  0  0
   -0.0253    2.4260   -0.0005 C   0  0  0  0  0  0  0  0  0  0  0  0
   -0.0071   -2.4284   -0.0016 C   0  0  0  0  0  0  0  0  0  0  0  0
    1.3885    2.4430    0.0006 C   0  0  0  0  0  0  0  0  0  0  0  0
    3.7961    1.3180    0.0012 Cl  0  0  0  0  0  0  0  0  0  0  0  0
    1.4080   -2.4294   -0.0006 C   0  0  0  0  0  0  0  0  0  0  0  0
   -1.8058    1.2121   -0.0004 H   0  0  0  0  0  0  0  0  0  0  0  0
   -1.7956   -1.2257   -0.0001 H   0  0  0  0  0  0  0  0  0  0  0  0
    3.2065   -1.2508   -0.0001 H   0  0  0  0  0  0  0  0  0  0  0  0
   -0.5662    3.3841   -0.0001 H   0  0  0  0  0  0  0  0  0  0  0  0
   -0.5434   -3.3888   -0.0016 H   0  0  0  0  0  0  0  0  0  0  0  0
    1.9119    3.4115    0.0014 H   0  0  0  0  0  0  0  0  0  0  0  0
    1.9418   -3.3915   -0.0014 H   0  0  0  0  0  0  0  0  0  0  0  0
  1  2  2  0  0  0  0
  1  3  1  0  0  0  0
  1  4  1  0  0  0  0
  2  5  1  0  0  0  0
  2  6  1  0  0  0  0
  3  7  2  0  0  0  0
  3 12  1  0  0  0  0
  4  8  2  0  0  0  0
  4 13  1  0  0  0  0
  5  9  2  0  0  0  0
  5 10  1  0  0  0  0
  6 11  2  0  0  0  0
  6 14  1  0  0  0  0
  7  9  1  0  0  0  0
  7 15  1  0  0  0  0
  8 11  1  0  0  0  0
  8 16  1  0  0  0  0
  9 17  1  0  0  0  0
 11 18  1  0  0  0  0
M  END