85687.out.mol
  Mrv0541 03111415023D          

 43 44  0  0  0  0            999 V2000
    0.0000    0.0000    0.0000 C   0  0  0  0  0  0  0  0  0  0  0  0
    1.4012    0.0000    0.0000 C   0  0  0  0  0  0  0  0  0  0  0  0
   -0.8003    1.2424    0.0000 C   0  0  0  0  0  0  0  0  0  0  0  0
   -0.6971   -1.2151   -0.0033 C   0  0  0  0  0  0  0  0  0  0  0  0
    2.0937   -1.2194    0.0217 C   0  0  0  0  0  0  0  0  0  0  0  0
    2.2138    1.2317   -0.0289 C   0  0  0  0  0  0  0  0  0  0  0  0
   -0.5619    2.0426    1.0839 O   0  0  0  0  0  0  0  0  0  0  0  0
   -1.6582    1.5897   -0.8131 O   0  0  0  0  0  0  0  0  0  0  0  0
   -0.0006   -2.4220    0.0089 C   0  0  0  0  0  0  0  0  0  0  0  0
    1.3942   -2.4240    0.0268 C   0  0  0  0  0  0  0  0  0  0  0  0
    1.6682    2.2479   -0.7600 O   0  0  0  0  0  0  0  0  0  0  0  0
    3.3183    1.4082    0.4923 O   0  0  0  0  0  0  0  0  0  0  0  0
   -1.3116    3.2720    1.1342 C   0  0  1  0  0  0  0  0  0  0  0  0
    2.4337    3.4672   -0.8256 C   0  0  1  0  0  0  0  0  0  0  0  0
   -0.9550    3.9944    2.3885 C   0  0  0  0  0  0  0  0  0  0  0  0
    1.6371    4.4097   -1.7072 C   0  0  1  0  0  0  0  0  0  0  0  0
   -1.3153    5.3443    2.4958 C   0  0  0  0  0  0  0  0  0  0  0  0
   -0.3000    3.3669    3.4515 C   0  0  0  0  0  0  0  0  0  0  0  0
    2.3561    5.7351   -1.8367 C   0  0  1  0  0  0  0  0  0  0  0  0
   -1.0250    6.0543    3.6583 C   0  0  0  0  0  0  0  0  0  0  0  0
   -0.0075    4.0835    4.6122 C   0  0  0  0  0  0  0  0  0  0  0  0
    1.5867    6.6902   -2.7123 C   0  0  0  0  0  0  0  0  0  0  0  0
   -0.3701    5.4253    4.7181 C   0  0  0  0  0  0  0  0  0  0  0  0
   -1.7985   -1.2077   -0.0215 H   0  0  0  0  0  0  0  0  0  0  0  0
    3.1960   -1.2098    0.0410 H   0  0  0  0  0  0  0  0  0  0  0  0
   -0.5546   -3.3731    0.0058 H   0  0  0  0  0  0  0  0  0  0  0  0
    1.9452   -3.3766    0.0443 H   0  0  0  0  0  0  0  0  0  0  0  0
   -1.0541    3.8786    0.2239 H   0  0  0  0  0  0  0  0  0  0  0  0
   -2.4075    3.0233    1.1134 H   0  0  0  0  0  0  0  0  0  0  0  0
    2.5606    3.8680    0.2133 H   0  0  0  0  0  0  0  0  0  0  0  0
    3.4411    3.2376   -1.2601 H   0  0  0  0  0  0  0  0  0  0  0  0
    1.4927    3.9461   -2.7177 H   0  0  0  0  0  0  0  0  0  0  0  0
    0.6178    4.5632   -1.2650 H   0  0  0  0  0  0  0  0  0  0  0  0
   -1.8288    5.8421    1.6599 H   0  0  0  0  0  0  0  0  0  0  0  0
   -0.0103    2.3081    3.3660 H   0  0  0  0  0  0  0  0  0  0  0  0
    2.4976    6.1863   -0.8189 H   0  0  0  0  0  0  0  0  0  0  0  0
    3.3780    5.5668   -2.2690 H   0  0  0  0  0  0  0  0  0  0  0  0
   -1.3117    7.1130    3.7393 H   0  0  0  0  0  0  0  0  0  0  0  0
    0.5115    3.5856    5.4444 H   0  0  0  0  0  0  0  0  0  0  0  0
    1.4567    6.2677   -3.7380 H   0  0  0  0  0  0  0  0  0  0  0  0
    0.5741    6.8889   -2.2850 H   0  0  0  0  0  0  0  0  0  0  0  0
    2.1315    7.6614   -2.7969 H   0  0  0  0  0  0  0  0  0  0  0  0
   -0.1401    5.9884    5.6343 H   0  0  0  0  0  0  0  0  0  0  0  0
  1  2  2  0  0  0  0
  1  3  1  0  0  0  0
  1  4  1  0  0  0  0
  2  5  1  0  0  0  0
  2  6  1  0  0  0  0
  3  7  1  0  0  0  0
  3  8  2  0  0  0  0
  4  9  2  0  0  0  0
  4 24  1  0  0  0  0
  5 10  2  0  0  0  0
  5 25  1  0  0  0  0
  6 11  1  0  0  0  0
  6 12  2  0  0  0  0
  7 13  1  0  0  0  0
  9 10  1  0  0  0  0
  9 26  1  0  0  0  0
 10 27  1  0  0  0  0
 11 14  1  0  0  0  0
 13 15  1  0  0  0  0
 13 28  1  0  0  0  0
 13 29  1  0  0  0  0
 14 16  1  0  0  0  0
 14 30  1  0  0  0  0
 14 31  1  0  0  0  0
 15 17  2  0  0  0  0
 15 18  1  0  0  0  0
 16 19  1  0  0  0  0
 16 32  1  0  0  0  0
 16 33  1  0  0  0  0
 17 20  1  0  0  0  0
 17 34  1  0  0  0  0
 18 21  2  0  0  0  0
 18 35  1  0  0  0  0
 19 22  1  0  0  0  0
 19 36  1  0  0  0  0
 19 37  1  0  0  0  0
 20 23  2  0  0  0  0
 20 38  1  0  0  0  0
 21 23  1  0  0  0  0
 21 39  1  0  0  0  0
 22 40  1  0  0  0  0
 22 41  1  0  0  0  0
 22 42  1  0  0  0  0
 23 43  1  0  0  0  0
M  END