58899.out.mol
  Mrv0541 03111415023D          

 18 18  0  0  0  0            999 V2000
    0.0000    0.0000    0.0000 C   0  0  1  0  0  0  0  0  0  0  0  0
    1.5250    0.0000    0.0000 C   0  0  1  0  0  0  0  0  0  0  0  0
   -0.5655    1.4160    0.0000 C   0  0  1  0  0  0  0  0  0  0  0  0
   -0.6033   -0.9657   -1.3415 Cl  0  0  0  0  0  0  0  0  0  0  0  0
    2.1587    0.9378   -1.0221 C   0  0  2  0  0  0  0  0  0  0  0  0
    2.1042    0.4299    1.6176 Cl  0  0  0  0  0  0  0  0  0  0  0  0
    0.0056    2.2545   -1.1405 C   0  0  2  0  0  0  0  0  0  0  0  0
   -2.3204    1.3737   -0.0458 Cl  0  0  0  0  0  0  0  0  0  0  0  0
    1.5230    2.3232   -0.9888 C   0  0  2  0  0  0  0  0  0  0  0  0
    2.1040    0.2104   -2.6234 Cl  0  0  0  0  0  0  0  0  0  0  0  0
   -0.6817    3.8733   -1.1069 Cl  0  0  0  0  0  0  0  0  0  0  0  0
    2.2476    3.3580   -2.2085 Cl  0  0  0  0  0  0  0  0  0  0  0  0
   -0.3707   -0.5368    0.9175 H   0  0  0  0  0  0  0  0  0  0  0  0
    1.9008   -1.0468   -0.1668 H   0  0  0  0  0  0  0  0  0  0  0  0
   -0.3093    1.8966    0.9850 H   0  0  0  0  0  0  0  0  0  0  0  0
    3.2578    1.0394   -0.8006 H   0  0  0  0  0  0  0  0  0  0  0  0
   -0.2761    1.8182   -2.1358 H   0  0  0  0  0  0  0  0  0  0  0  0
    1.7811    2.8047   -0.0048 H   0  0  0  0  0  0  0  0  0  0  0  0
  1  2  1  0  0  0  0
  1  3  1  0  0  0  0
  1  4  1  0  0  0  0
  1 13  1  1  0  0  0
  2  5  1  0  0  0  0
  2  6  1  0  0  0  0
  2 14  1  6  0  0  0
  3  7  1  0  0  0  0
  3  8  1  0  0  0  0
  3 15  1  1  0  0  0
  5  9  1  0  0  0  0
  5 10  1  0  0  0  0
  5 16  1  1  0  0  0
  7  9  1  0  0  0  0
  7 11  1  0  0  0  0
  7 17  1  6  0  0  0
  9 12  1  0  0  0  0
  9 18  1  1  0  0  0
M  END