1031078.out.mol
  Mrv0541 03111415023D          

 26 28  0  0  0  0            999 V2000
    0.0000    0.0000    0.0000 C   0  0  1  0  0  0  0  0  0  0  0  0
    1.5502    0.0000    0.0000 C   0  0  2  0  0  0  0  0  0  0  0  0
   -0.2683    1.5730    0.0000 C   0  0  1  0  0  0  0  0  0  0  0  0
   -0.4587   -0.3271   -1.4228 C   0  0  0  0  0  0  0  0  0  0  0  0
   -0.7364   -0.8928    1.2680 Cl  0  0  0  0  0  0  0  0  0  0  0  0
    1.9135    1.0917   -1.0392 C   0  0  1  0  0  0  0  0  0  0  0  0
    2.2109   -1.3302   -0.3272 C   0  0  1  0  0  0  0  0  0  0  0  0
    0.5526    1.7829   -1.3419 C   0  0  1  0  0  0  0  0  0  0  0  0
   -1.9601    1.9748   -0.1693 Cl  0  0  0  0  0  0  0  0  0  0  0  0
    0.3699    2.4141    1.3858 Cl  0  0  0  0  0  0  0  0  0  0  0  0
   -0.1624    0.7399   -2.2194 C   0  0  0  0  0  0  0  0  0  0  0  0
   -1.1966   -1.7543   -1.8386 Cl  0  0  0  0  0  0  0  0  0  0  0  0
    3.0527    1.9774   -0.5573 C   0  0  1  0  0  0  0  0  0  0  0  0
    3.5802   -1.2746    0.0071 O   0  0  0  0  0  0  0  0  0  0  0  0
    0.6228    3.3855   -1.9473 Cl  0  0  0  0  0  0  0  0  0  0  0  0
   -0.4384    0.9430   -3.8399 Cl  0  0  0  0  0  0  0  0  0  0  0  0
    4.0947    1.1928   -0.0174 O   0  0  0  0  0  0  0  0  0  0  0  0
    4.6832   -0.2234   -0.6272 S   0  0  1  0  0  0  0  0  0  0  0  0
    5.8559   -0.4652    0.0133 O   0  0  0  0  0  0  0  0  0  0  0  0
    4.4762   -0.1934   -1.9748 O   0  0  0  0  0  0  0  0  0  0  0  0
    1.9085    0.3116    1.0236 H   0  0  0  0  0  0  0  0  0  0  0  0
    2.2619    0.6063   -1.9994 H   0  0  0  0  0  0  0  0  0  0  0  0
    1.7917   -2.1530    0.3155 H   0  0  0  0  0  0  0  0  0  0  0  0
    2.1027   -1.5947   -1.4137 H   0  0  0  0  0  0  0  0  0  0  0  0
    3.4632    2.5809   -1.4118 H   0  0  0  0  0  0  0  0  0  0  0  0
    2.7412    2.6587    0.2806 H   0  0  0  0  0  0  0  0  0  0  0  0
  1  2  1  0  0  0  0
  1  3  1  0  0  0  0
  1  4  1  0  0  0  0
  1  5  1  1  0  0  0
  2  6  1  0  0  0  0
  2  7  1  0  0  0  0
  2 21  1  1  0  0  0
  3  8  1  0  0  0  0
  3  9  1  0  0  0  0
  3 10  1  0  0  0  0
  4 11  2  0  0  0  0
  4 12  1  0  0  0  0
  6  8  1  0  0  0  0
  6 13  1  0  0  0  0
  6 22  1  6  0  0  0
  7 14  1  0  0  0  0
  7 23  1  0  0  0  0
  7 24  1  0  0  0  0
  8 11  1  0  0  0  0
  8 15  1  6  0  0  0
 11 16  1  0  0  0  0
 13 17  1  0  0  0  0
 13 25  1  0  0  0  0
 13 26  1  0  0  0  0
 14 18  1  0  0  0  0
 17 18  1  0  0  0  0
 18 19  2  0  0  0  0
 18 20  2  0  0  0  0
M  END