85018.out.mol
  Mrv0541 03111415023D          

 24 26  0  0  0  0            999 V2000
    0.0000    0.0000    0.0000 C   0  0  0  0  0  0  0  0  0  0  0  0
    1.4461    0.0000    0.0000 C   0  0  0  0  0  0  0  0  0  0  0  0
   -0.6920    1.2350    0.0000 C   0  0  0  0  0  0  0  0  0  0  0  0
   -0.7583   -1.1938   -0.0005 C   0  0  0  0  0  0  0  0  0  0  0  0
    2.1381    1.2351    0.0006 C   0  0  0  0  0  0  0  0  0  0  0  0
    2.2044   -1.1938   -0.0005 C   0  0  0  0  0  0  0  0  0  0  0  0
    0.0445    2.4668    0.0006 C   0  0  0  0  0  0  0  0  0  0  0  0
   -2.1053    1.2505   -0.0005 C   0  0  0  0  0  0  0  0  0  0  0  0
   -2.1392   -1.1596   -0.0010 C   0  0  0  0  0  0  0  0  0  0  0  0
    1.4016    2.4668    0.0016 C   0  0  0  0  0  0  0  0  0  0  0  0
    3.5514    1.2505    0.0000 C   0  0  0  0  0  0  0  0  0  0  0  0
    3.5853   -1.1596   -0.0010 C   0  0  0  0  0  0  0  0  0  0  0  0
   -2.8204    0.0703   -0.0006 C   0  0  0  0  0  0  0  0  0  0  0  0
    4.2665    0.0703   -0.0016 C   0  0  0  0  0  0  0  0  0  0  0  0
   -0.2486   -2.1683   -0.0005 H   0  0  0  0  0  0  0  0  0  0  0  0
    1.6947   -2.1683   -0.0014 H   0  0  0  0  0  0  0  0  0  0  0  0
   -0.5257    3.4084    0.0010 H   0  0  0  0  0  0  0  0  0  0  0  0
   -2.6265    2.2197   -0.0010 H   0  0  0  0  0  0  0  0  0  0  0  0
   -2.7153   -2.0968   -0.0019 H   0  0  0  0  0  0  0  0  0  0  0  0
    1.9717    3.4084    0.0016 H   0  0  0  0  0  0  0  0  0  0  0  0
    4.0726    2.2197    0.0000 H   0  0  0  0  0  0  0  0  0  0  0  0
    4.1614   -2.0968   -0.0019 H   0  0  0  0  0  0  0  0  0  0  0  0
   -3.9201    0.0828   -0.0014 H   0  0  0  0  0  0  0  0  0  0  0  0
    5.3662    0.0829   -0.0024 H   0  0  0  0  0  0  0  0  0  0  0  0
  1  2  2  0  0  0  0
  1  3  1  0  0  0  0
  1  4  1  0  0  0  0
  2  5  1  0  0  0  0
  2  6  1  0  0  0  0
  3  7  2  0  0  0  0
  3  8  1  0  0  0  0
  4  9  2  0  0  0  0
  4 15  1  0  0  0  0
  5 10  2  0  0  0  0
  5 11  1  0  0  0  0
  6 12  2  0  0  0  0
  6 16  1  0  0  0  0
  7 10  1  0  0  0  0
  7 17  1  0  0  0  0
  8 13  2  0  0  0  0
  8 18  1  0  0  0  0
  9 13  1  0  0  0  0
  9 19  1  0  0  0  0
 10 20  1  0  0  0  0
 11 14  2  0  0  0  0
 11 21  1  0  0  0  0
 12 14  1  0  0  0  0
 12 22  1  0  0  0  0
 13 23  1  0  0  0  0
 14 24  1  0  0  0  0
M  END