2668248.out.mol
  Mrv0541 03111415023D          

 17 17  0  0  0  0            999 V2000
    0.0000    0.0000    0.0000 C   0  0  0  0  0  0  0  0  0  0  0  0
    1.4176    0.0000    0.0000 C   0  0  0  0  0  0  0  0  0  0  0  0
   -0.7118    1.1946    0.0000 C   0  0  0  0  0  0  0  0  0  0  0  0
   -0.5695   -1.2610    0.0006 O   0  0  0  0  0  0  0  0  0  0  0  0
    2.1102    1.2215    0.0005 C   0  0  0  0  0  0  0  0  0  0  0  0
    2.1430   -1.1646    0.0005 O   0  0  0  0  0  0  0  0  0  0  0  0
   -0.0138    2.4082    0.0005 C   0  0  0  0  0  0  0  0  0  0  0  0
   -1.9931   -1.3064    0.0000 C   0  0  0  0  0  0  0  0  0  0  0  0
    1.3859    2.4298    0.0016 C   0  0  0  0  0  0  0  0  0  0  0  0
    3.8033    1.2490   -0.0001 Cl  0  0  0  0  0  0  0  0  0  0  0  0
   -0.9106    3.8484    0.0012 Cl  0  0  0  0  0  0  0  0  0  0  0  0
    2.2128    3.9080    0.0016 Cl  0  0  0  0  0  0  0  0  0  0  0  0
   -1.8121    1.1981   -0.0004 H   0  0  0  0  0  0  0  0  0  0  0  0
    1.5215   -1.9104    0.0002 H   0  0  0  0  0  0  0  0  0  0  0  0
   -2.4009   -0.8195    0.9189 H   0  0  0  0  0  0  0  0  0  0  0  0
   -2.4003   -0.8201   -0.9194 H   0  0  0  0  0  0  0  0  0  0  0  0
   -2.2143   -2.4041    0.0001 H   0  0  0  0  0  0  0  0  0  0  0  0
  1  2  2  0  0  0  0
  1  3  1  0  0  0  0
  1  4  1  0  0  0  0
  2  5  1  0  0  0  0
  2  6  1  0  0  0  0
  3  7  2  0  0  0  0
  3 13  1  0  0  0  0
  4  8  1  0  0  0  0
  5  9  2  0  0  0  0
  5 10  1  0  0  0  0
  6 14  1  0  0  0  0
  7  9  1  0  0  0  0
  7 11  1  0  0  0  0
  8 15  1  0  0  0  0
  8 16  1  0  0  0  0
  8 17  1  0  0  0  0
  9 12  1  0  0  0  0
M  END