90437.out.mol
  Mrv0541 03111415023D          

 23 24  0  0  0  0            999 V2000
    0.0000    0.0000    0.0000 C   0  0  0  0  0  0  0  0  0  0  0  0
    1.4620    0.0000    0.0000 C   0  0  0  0  0  0  0  0  0  0  0  0
   -0.7016    1.2143    0.0000 C   0  0  0  0  0  0  0  0  0  0  0  0
   -0.7173   -1.2047   -0.0285 C   0  0  0  0  0  0  0  0  0  0  0  0
    2.2132   -0.7362    0.9369 C   0  0  0  0  0  0  0  0  0  0  0  0
    2.1527    0.7535   -0.9609 C   0  0  0  0  0  0  0  0  0  0  0  0
   -2.0947    1.2207   -0.0193 C   0  0  0  0  0  0  0  0  0  0  0  0
   -2.1106   -1.1928   -0.0501 C   0  0  0  0  0  0  0  0  0  0  0  0
    3.6198   -0.7295    0.9001 C   0  0  0  0  0  0  0  0  0  0  0  0
    1.6543   -1.5005    1.9341 O   0  0  0  0  0  0  0  0  0  0  0  0
    3.5427    0.7612   -1.0005 C   0  0  0  0  0  0  0  0  0  0  0  0
   -2.8018    0.0185   -0.0441 C   0  0  0  0  0  0  0  0  0  0  0  0
    4.2739    0.0166   -0.0718 C   0  0  0  0  0  0  0  0  0  0  0  0
   -0.1442    2.1630    0.0169 H   0  0  0  0  0  0  0  0  0  0  0  0
   -0.1729   -2.1618   -0.0476 H   0  0  0  0  0  0  0  0  0  0  0  0
    1.5764    1.3382   -1.6945 H   0  0  0  0  0  0  0  0  0  0  0  0
   -2.6373    2.1777   -0.0159 H   0  0  0  0  0  0  0  0  0  0  0  0
   -2.6648   -2.1428   -0.0758 H   0  0  0  0  0  0  0  0  0  0  0  0
    4.1769   -1.3168    1.6436 H   0  0  0  0  0  0  0  0  0  0  0  0
    0.6994   -1.3319    1.9495 H   0  0  0  0  0  0  0  0  0  0  0  0
    4.0667    1.3530   -1.7645 H   0  0  0  0  0  0  0  0  0  0  0  0
   -3.9014    0.0258   -0.0607 H   0  0  0  0  0  0  0  0  0  0  0  0
    5.3736    0.0220   -0.1066 H   0  0  0  0  0  0  0  0  0  0  0  0
  1  2  1  0  0  0  0
  1  3  2  0  0  0  0
  1  4  1  0  0  0  0
  2  5  2  0  0  0  0
  2  6  1  0  0  0  0
  3  7  1  0  0  0  0
  3 14  1  0  0  0  0
  4  8  2  0  0  0  0
  4 15  1  0  0  0  0
  5  9  1  0  0  0  0
  5 10  1  0  0  0  0
  6 11  2  0  0  0  0
  6 16  1  0  0  0  0
  7 12  2  0  0  0  0
  7 17  1  0  0  0  0
  8 12  1  0  0  0  0
  8 18  1  0  0  0  0
  9 13  2  0  0  0  0
  9 19  1  0  0  0  0
 10 20  1  0  0  0  0
 11 13  1  0  0  0  0
 11 21  1  0  0  0  0
 12 22  1  0  0  0  0
 13 23  1  0  0  0  0
M  END