97007.out.mol
  Mrv0541 03111415023D          

 16 16  0  0  0  0            999 V2000
    0.0000    0.0000    0.0000 C   0  0  0  0  0  0  0  0  0  0  0  0
    1.4027    0.0000    0.0000 C   0  0  0  0  0  0  0  0  0  0  0  0
   -0.7200    1.2105    0.0000 C   0  0  0  0  0  0  0  0  0  0  0  0
   -0.6913   -1.3260   -0.0102 N   0  3  0  0  0  0  0  0  0  0  0  0
    2.0785    1.2265    0.0360 C   0  0  0  0  0  0  0  0  0  0  0  0
   -0.0159    2.4230    0.0327 C   0  0  0  0  0  0  0  0  0  0  0  0
   -2.4039    1.2549   -0.0694 Cl  0  0  0  0  0  0  0  0  0  0  0  0
   -1.5683   -1.5359    0.7777 O   0  5  0  0  0  0  0  0  0  0  0  0
   -0.3096   -2.1480   -0.7963 O   0  0  0  0  0  0  0  0  0  0  0  0
    1.3734    2.4414    0.0564 C   0  0  0  0  0  0  0  0  0  0  0  0
    3.5680    1.2408    0.0509 N   0  3  0  0  0  0  0  0  0  0  0  0
    4.1305    2.3013    0.0611 O   0  5  0  0  0  0  0  0  0  0  0  0
    4.1551    0.1944    0.0539 O   0  0  0  0  0  0  0  0  0  0  0  0
    1.9683   -0.9528   -0.0324 H   0  0  0  0  0  0  0  0  0  0  0  0
   -0.5726    3.3756    0.0378 H   0  0  0  0  0  0  0  0  0  0  0  0
    1.9194    3.4023    0.0866 H   0  0  0  0  0  0  0  0  0  0  0  0
  1  2  2  0  0  0  0
  1  3  1  0  0  0  0
  1  4  1  0  0  0  0
  2  5  1  0  0  0  0
  2 14  1  0  0  0  0
  3  6  2  0  0  0  0
  3  7  1  0  0  0  0
  4  8  1  0  0  0  0
  4  9  2  0  0  0  0
  5 10  2  0  0  0  0
  5 11  1  0  0  0  0
  6 10  1  0  0  0  0
  6 15  1  0  0  0  0
 10 16  1  0  0  0  0
 11 12  1  0  0  0  0
 11 13  2  0  0  0  0
M  CHG  4   4   1   8  -1  11   1  12  -1
M  END