101848.out.mol
  Mrv0541 03111415023D          

 23 24  0  0  0  0            999 V2000
    0.0000    0.0000    0.0000 C   0  0  0  0  0  0  0  0  0  0  0  0
    1.3919    0.0000    0.0000 O   0  0  0  0  0  0  0  0  0  0  0  0
   -0.6041    1.2671    0.0000 C   0  0  0  0  0  0  0  0  0  0  0  0
   -0.7648   -1.1686   -0.0956 C   0  0  0  0  0  0  0  0  0  0  0  0
    2.0200   -1.0490    0.6653 C   0  0  0  0  0  0  0  0  0  0  0  0
   -1.9903    1.3495   -0.1048 C   0  0  0  0  0  0  0  0  0  0  0  0
   -2.1510   -1.0617   -0.1933 C   0  0  0  0  0  0  0  0  0  0  0  0
    3.2472   -1.4605    0.1219 C   0  0  0  0  0  0  0  0  0  0  0  0
    1.5305   -1.6030    1.8540 C   0  0  0  0  0  0  0  0  0  0  0  0
   -2.7636    0.1914   -0.1987 C   0  0  0  0  0  0  0  0  0  0  0  0
    3.9849   -2.4334    0.7916 C   0  0  0  0  0  0  0  0  0  0  0  0
    2.2832   -2.5798    2.5034 C   0  0  0  0  0  0  0  0  0  0  0  0
    3.5062   -2.9946    1.9765 C   0  0  0  0  0  0  0  0  0  0  0  0
    0.0192    2.1694    0.0709 H   0  0  0  0  0  0  0  0  0  0  0  0
   -0.2726   -2.1518   -0.0920 H   0  0  0  0  0  0  0  0  0  0  0  0
   -2.4761    2.3367   -0.1106 H   0  0  0  0  0  0  0  0  0  0  0  0
   -2.7617   -1.9735   -0.2704 H   0  0  0  0  0  0  0  0  0  0  0  0
    3.6118   -1.0061   -0.8099 H   0  0  0  0  0  0  0  0  0  0  0  0
    0.5659   -1.2684    2.2623 H   0  0  0  0  0  0  0  0  0  0  0  0
   -3.8576    0.2673   -0.2778 H   0  0  0  0  0  0  0  0  0  0  0  0
    4.9506   -2.7616    0.3790 H   0  0  0  0  0  0  0  0  0  0  0  0
    1.9087   -3.0210    3.4391 H   0  0  0  0  0  0  0  0  0  0  0  0
    4.0950   -3.7644    2.4958 H   0  0  0  0  0  0  0  0  0  0  0  0
  1  2  1  0  0  0  0
  1  3  2  0  0  0  0
  1  4  1  0  0  0  0
  2  5  1  0  0  0  0
  3  6  1  0  0  0  0
  3 14  1  0  0  0  0
  4  7  2  0  0  0  0
  4 15  1  0  0  0  0
  5  8  2  0  0  0  0
  5  9  1  0  0  0  0
  6 10  2  0  0  0  0
  6 16  1  0  0  0  0
  7 10  1  0  0  0  0
  7 17  1  0  0  0  0
  8 11  1  0  0  0  0
  8 18  1  0  0  0  0
  9 12  2  0  0  0  0
  9 19  1  0  0  0  0
 10 20  1  0  0  0  0
 11 13  2  0  0  0  0
 11 21  1  0  0  0  0
 12 13  1  0  0  0  0
 12 22  1  0  0  0  0
 13 23  1  0  0  0  0
M  END