556616.out.mol
  Mrv0541 03111415023D          

  7  6  0  0  0  0            999 V2000
    0.0000    0.0000    0.0000 C   0  0  0  0  0  0  0  0  0  0  0  0
    1.2225    0.0000    0.0000 N   0  0  0  0  0  0  0  0  0  0  0  0
   -1.4507    0.2453    0.0000 S   0  0  0  0  0  0  0  0  0  0  0  0
    2.3054   -0.8946    0.0017 C   0  0  0  0  0  0  0  0  0  0  0  0
    2.2933   -1.5473    0.9183 H   0  0  0  0  0  0  0  0  0  0  0  0
    2.2931   -1.5510   -0.9122 H   0  0  0  0  0  0  0  0  0  0  0  0
    3.2498   -0.2849    0.0001 H   0  0  0  0  0  0  0  0  0  0  0  0
  1  2  2  0  0  0  0
  1  3  2  0  0  0  0
  2  4  1  0  0  0  0
  4  5  1  0  0  0  0
  4  6  1  0  0  0  0
  4  7  1  0  0  0  0
M  END