62533.out.mol
  Mrv0541 03111415023D          

 14 14  0  0  0  0            999 V2000
    0.0000    0.0000    0.0000 C   0  0  0  0  0  0  0  0  0  0  0  0
    1.4148    0.0000    0.0000 C   0  0  0  0  0  0  0  0  0  0  0  0
   -0.6742    1.2439    0.0000 C   0  0  0  0  0  0  0  0  0  0  0  0
   -0.7150   -1.2008    0.0796 N   0  0  2  0  0  0  0  0  0  0  0  0
    2.1160    1.2002    0.0157 C   0  0  0  0  0  0  0  0  0  0  0  0
    0.0468    2.4322    0.0157 C   0  0  0  0  0  0  0  0  0  0  0  0
    1.4408    2.4198    0.0231 C   0  0  0  0  0  0  0  0  0  0  0  0
    1.9671   -0.9512   -0.0023 H   0  0  0  0  0  0  0  0  0  0  0  0
   -1.7736    1.2761   -0.0023 H   0  0  0  0  0  0  0  0  0  0  0  0
   -0.2203   -1.9943   -0.2632 H   0  0  0  0  0  0  0  0  0  0  0  0
   -1.6482   -1.1440   -0.2633 H   0  0  0  0  0  0  0  0  0  0  0  0
    3.2164    1.1832    0.0211 H   0  0  0  0  0  0  0  0  0  0  0  0
   -0.4925    3.3915    0.0212 H   0  0  0  0  0  0  0  0  0  0  0  0
    2.0028    3.3636    0.0351 H   0  0  0  0  0  0  0  0  0  0  0  0
  1  2  2  0  0  0  0
  1  3  1  0  0  0  0
  1  4  1  0  0  0  0
  2  5  1  0  0  0  0
  2  8  1  0  0  0  0
  3  6  2  0  0  0  0
  3  9  1  0  0  0  0
  4 10  1  0  0  0  0
  4 11  1  0  0  0  0
  5  7  2  0  0  0  0
  5 12  1  0  0  0  0
  6  7  1  0  0  0  0
  6 13  1  0  0  0  0
  7 14  1  0  0  0  0
M  END