2051607.out
  Mrv0541 03111415023D          

 22 23  0  0  0  0            999 V2000
    0.4861   -0.5118    0.0000 C   0  0  0  0  0  0  0  0  0  0  0  0
    0.9972   -1.8297    0.0000 C   0  0  0  0  0  0  0  0  0  0  0  0
    2.3567   -2.1134    0.0000 C   0  0  0  0  0  0  0  0  0  0  0  0
    3.2867   -1.0758    0.0000 C   0  0  0  0  0  0  0  0  0  0  0  0
    2.8269    0.2335    0.0000 C   0  0  0  0  0  0  0  0  0  0  0  0
    1.4515    0.5170    0.0000 C   0  0  0  0  0  0  0  0  0  0  0  0
    0.3189   -2.6953    0.0000 H   0  0  0  0  0  0  0  0  0  0  0  0
    2.6967   -3.1599    0.0000 H   0  0  0  0  0  0  0  0  0  0  0  0
    4.3655   -1.2874    0.0000 H   0  0  0  0  0  0  0  0  0  0  0  0
    3.5516    1.0639    0.0000 H   0  0  0  0  0  0  0  0  0  0  0  0
    1.1145    2.1923    0.0000 Cl  0  0  0  0  0  0  0  0  0  0  0  0
   -0.9732   -0.3303    0.0000 C   0  0  0  0  0  0  0  0  0  0  0  0
   -1.5883    0.9320    0.0000 C   0  0  0  0  0  0  0  0  0  0  0  0
   -2.9747    1.0756    0.0000 C   0  0  0  0  0  0  0  0  0  0  0  0
   -3.8016   -0.0437    0.0000 C   0  0  0  0  0  0  0  0  0  0  0  0
   -3.2175   -1.3088    0.0000 C   0  0  0  0  0  0  0  0  0  0  0  0
   -1.8325   -1.4486    0.0000 C   0  0  0  0  0  0  0  0  0  0  0  0
   -0.9851    1.8533    0.0000 H   0  0  0  0  0  0  0  0  0  0  0  0
   -3.4125    2.0850    0.0000 H   0  0  0  0  0  0  0  0  0  0  0  0
   -4.8951    0.0669    0.0000 H   0  0  0  0  0  0  0  0  0  0  0  0
   -3.8527   -2.2071    0.0000 H   0  0  0  0  0  0  0  0  0  0  0  0
   -1.4450   -2.4770    0.0000 H   0  0  0  0  0  0  0  0  0  0  0  0
  2  1  1  0  0  0  0
  3  2  2  0  0  0  0
  4  3  1  0  0  0  0
  5  4  2  0  0  0  0
  6  1  2  0  0  0  0
  6  5  1  0  0  0  0
  7  2  1  0  0  0  0
  8  3  1  0  0  0  0
  9  4  1  0  0  0  0
 10  5  1  0  0  0  0
 11  6  1  0  0  0  0
 12  1  1  0  0  0  0
 13 12  1  0  0  0  0
 14 13  2  0  0  0  0
 15 14  1  0  0  0  0
 16 15  2  0  0  0  0
 17 12  2  0  0  0  0
 17 16  1  0  0  0  0
 18 13  1  0  0  0  0
 19 14  1  0  0  0  0
 20 15  1  0  0  0  0
 21 16  1  0  0  0  0
 22 17  1  0  0  0  0
M  END