592825.out.mol
  Mrv0541 03111415023D          

 16 15  0  0  0  0            999 V2000
    0.0000    0.0000    0.0000 C   0  0  1  0  0  0  0  0  0  0  0  0
    1.5290    0.0000    0.0000 C   0  0  1  0  0  0  0  0  0  0  0  0
   -0.6492    1.2557    0.0000 N   0  0  0  0  0  0  0  0  0  0  0  0
    2.1058    0.4859   -1.3110 C   0  0  1  0  0  0  0  0  0  0  0  0
   -0.4226    2.4408    0.1976 C   0  0  0  0  0  0  0  0  0  0  0  0
    3.6114    0.4161   -1.3066 C   0  0  0  0  0  0  0  0  0  0  0  0
   -0.3899    3.9010    0.3860 S   0  0  0  0  0  0  0  0  0  0  0  0
   -0.3697   -0.5519   -0.9145 H   0  0  0  0  0  0  0  0  0  0  0  0
   -0.3606   -0.5612    0.9136 H   0  0  0  0  0  0  0  0  0  0  0  0
    1.9194    0.6275    0.8432 H   0  0  0  0  0  0  0  0  0  0  0  0
    1.8621   -1.0556    0.1871 H   0  0  0  0  0  0  0  0  0  0  0  0
    1.7022   -0.1381   -2.1521 H   0  0  0  0  0  0  0  0  0  0  0  0
    1.7807    1.5434   -1.4993 H   0  0  0  0  0  0  0  0  0  0  0  0
    4.0337    1.0513   -0.4908 H   0  0  0  0  0  0  0  0  0  0  0  0
    3.9581   -0.6337   -1.1485 H   0  0  0  0  0  0  0  0  0  0  0  0
    4.0173    0.7790   -2.2817 H   0  0  0  0  0  0  0  0  0  0  0  0
  1  2  1  0  0  0  0
  1  3  1  0  0  0  0
  1  8  1  0  0  0  0
  1  9  1  0  0  0  0
  2  4  1  0  0  0  0
  2 10  1  0  0  0  0
  2 11  1  0  0  0  0
  3  5  2  0  0  0  0
  4  6  1  0  0  0  0
  4 12  1  0  0  0  0
  4 13  1  0  0  0  0
  5  7  2  0  0  0  0
  6 14  1  0  0  0  0
  6 15  1  0  0  0  0
  6 16  1  0  0  0  0
M  END