634673.out.mol
  Mrv0541 03111415023D          

 14 14  0  0  0  0            999 V2000
    0.0000    0.0000    0.0000 C   0  0  0  0  0  0  0  0  0  0  0  0
    1.4018    0.0000    0.0000 C   0  0  0  0  0  0  0  0  0  0  0  0
   -0.7248    1.2210    0.0000 C   0  0  0  0  0  0  0  0  0  0  0  0
   -0.8464   -1.4759    0.0007 Cl  0  0  0  0  0  0  0  0  0  0  0  0
    2.1009    1.2144   -0.0103 C   0  0  0  0  0  0  0  0  0  0  0  0
    2.2502   -1.4672    0.0081 Cl  0  0  0  0  0  0  0  0  0  0  0  0
    0.0116    2.4322   -0.0205 C   0  0  0  0  0  0  0  0  0  0  0  0
   -2.1097    1.2460    0.0923 N   0  0  2  0  0  0  0  0  0  0  0  0
    1.3957    2.4227   -0.0212 C   0  0  0  0  0  0  0  0  0  0  0  0
    3.7969    1.2524   -0.0113 Cl  0  0  0  0  0  0  0  0  0  0  0  0
   -0.5209    3.3958   -0.0257 H   0  0  0  0  0  0  0  0  0  0  0  0
   -2.5868    0.4087   -0.1540 H   0  0  0  0  0  0  0  0  0  0  0  0
   -2.5456    2.0844   -0.2149 H   0  0  0  0  0  0  0  0  0  0  0  0
    1.9478    3.3765   -0.0311 H   0  0  0  0  0  0  0  0  0  0  0  0
  1  2  2  0  0  0  0
  1  3  1  0  0  0  0
  1  4  1  0  0  0  0
  2  5  1  0  0  0  0
  2  6  1  0  0  0  0
  3  7  2  0  0  0  0
  3  8  1  0  0  0  0
  5  9  2  0  0  0  0
  5 10  1  0  0  0  0
  7  9  1  0  0  0  0
  7 11  1  0  0  0  0
  8 12  1  0  0  0  0
  8 13  1  0  0  0  0
  9 14  1  0  0  0  0
M  END