602017.out.mol
  Mrv0541 03111415023D          

 19 19  0  0  0  0            999 V2000
    0.0000    0.0000    0.0000 C   0  0  0  0  0  0  0  0  0  0  0  0
    1.4127    0.0000    0.0000 C   0  0  0  0  0  0  0  0  0  0  0  0
   -0.7045    1.2188    0.0000 C   0  0  0  0  0  0  0  0  0  0  0  0
   -0.7599   -1.2891   -0.0377 N   0  3  0  0  0  0  0  0  0  0  0  0
    2.2054   -1.2675    0.0590 N   0  3  0  0  0  0  0  0  0  0  0  0
    2.1167    1.2100   -0.0382 C   0  0  0  0  0  0  0  0  0  0  0  0
    0.0241    2.4177   -0.0227 C   0  0  0  0  0  0  0  0  0  0  0  0
   -2.1856    1.2632    0.0183 C   0  0  0  0  0  0  0  0  0  0  0  0
   -1.6610   -1.4499    0.7363 O   0  5  0  0  0  0  0  0  0  0  0  0
   -0.4535   -2.1018   -0.8631 O   0  0  0  0  0  0  0  0  0  0  0  0
    3.2318   -1.3147   -0.5604 O   0  5  0  0  0  0  0  0  0  0  0  0
    1.8180   -2.1653    0.7506 O   0  0  0  0  0  0  0  0  0  0  0  0
    1.4131    2.4143   -0.0479 C   0  0  0  0  0  0  0  0  0  0  0  0
    3.2206    1.2078   -0.0649 H   0  0  0  0  0  0  0  0  0  0  0  0
   -0.5228    3.3752   -0.0232 H   0  0  0  0  0  0  0  0  0  0  0  0
   -2.5749    0.7821    0.9533 H   0  0  0  0  0  0  0  0  0  0  0  0
   -2.5563    2.3169   -0.0203 H   0  0  0  0  0  0  0  0  0  0  0  0
   -2.6089    0.7088   -0.8572 H   0  0  0  0  0  0  0  0  0  0  0  0
    1.9690    3.3655   -0.0755 H   0  0  0  0  0  0  0  0  0  0  0  0
  1  2  2  0  0  0  0
  1  3  1  0  0  0  0
  1  4  1  0  0  0  0
  2  5  1  0  0  0  0
  2  6  1  0  0  0  0
  3  7  2  0  0  0  0
  3  8  1  0  0  0  0
  4  9  1  0  0  0  0
  4 10  2  0  0  0  0
  5 11  1  0  0  0  0
  5 12  2  0  0  0  0
  6 13  2  0  0  0  0
  6 14  1  0  0  0  0
  7 13  1  0  0  0  0
  7 15  1  0  0  0  0
  8 16  1  0  0  0  0
  8 17  1  0  0  0  0
  8 18  1  0  0  0  0
 13 19  1  0  0  0  0
M  CHG  4   4   1   5   1   9  -1  11  -1
M  END