959988.out.mol
  Mrv0541 03111415023D          

 25 27  0  0  0  0            999 V2000
    0.0000    0.0000    0.0000 C   0  0  2  0  0  0  0  0  0  0  0  0
    1.5590    0.0000    0.0000 C   0  0  1  0  0  0  0  0  0  0  0  0
   -0.2969    1.5614    0.0000 C   0  0  1  0  0  0  0  0  0  0  0  0
   -0.4287   -0.3352    1.4302 C   0  0  0  0  0  0  0  0  0  0  0  0
   -0.7391   -0.9068   -1.2585 Cl  0  0  0  0  0  0  0  0  0  0  0  0
    1.9283    1.2096    0.8983 C   0  0  1  0  0  0  0  0  0  0  0  0
    2.1153   -1.3555    0.4153 C   0  0  1  0  0  0  0  0  0  0  0  0
    0.5460    1.7888    1.3276 C   0  0  2  0  0  0  0  0  0  0  0  0
    0.3235    2.4070   -1.3937 Cl  0  0  0  0  0  0  0  0  0  0  0  0
   -1.9909    1.9399    0.1866 Cl  0  0  0  0  0  0  0  0  0  0  0  0
   -0.1040    0.7283    2.2201 C   0  0  0  0  0  0  0  0  0  0  0  0
   -1.1562   -1.7632    1.8617 Cl  0  0  0  0  0  0  0  0  0  0  0  0
    2.8103    0.9209    2.1058 C   0  0  1  0  0  0  0  0  0  0  0  0
    3.5077   -1.3873    0.2230 O   0  0  0  0  0  0  0  0  0  0  0  0
    0.5745    3.3956    1.9357 Cl  0  0  0  0  0  0  0  0  0  0  0  0
   -0.3371    0.9168    3.8525 Cl  0  0  0  0  0  0  0  0  0  0  0  0
    4.1097    0.5845    1.6873 O   0  0  0  0  0  0  0  0  0  0  0  0
    4.5520   -1.0410    1.5108 S   0  0  1  0  0  0  0  0  0  0  0  0
    3.8324   -1.6349    2.6063 O   0  0  0  0  0  0  0  0  0  0  0  0
    2.4642    1.9708    0.2660 H   0  0  0  0  0  0  0  0  0  0  0  0
    1.9259    0.2077   -1.0434 H   0  0  0  0  0  0  0  0  0  0  0  0
    1.8488   -1.6074    1.4788 H   0  0  0  0  0  0  0  0  0  0  0  0
    1.7059   -2.1539   -0.2667 H   0  0  0  0  0  0  0  0  0  0  0  0
    2.9317    1.8612    2.7151 H   0  0  0  0  0  0  0  0  0  0  0  0
    2.3742    0.1138    2.7570 H   0  0  0  0  0  0  0  0  0  0  0  0
  1  2  1  0  0  0  0
  1  3  1  0  0  0  0
  1  4  1  0  0  0  0
  1  5  1  6  0  0  0
  2  6  1  0  0  0  0
  2  7  1  0  0  0  0
  2 21  1  6  0  0  0
  3  8  1  0  0  0  0
  3  9  1  0  0  0  0
  3 10  1  0  0  0  0
  4 11  2  0  0  0  0
  4 12  1  0  0  0  0
  6  8  1  0  0  0  0
  6 13  1  0  0  0  0
  6 20  1  6  0  0  0
  7 14  1  0  0  0  0
  7 22  1  0  0  0  0
  7 23  1  0  0  0  0
  8 11  1  0  0  0  0
  8 15  1  1  0  0  0
 11 16  1  0  0  0  0
 13 17  1  0  0  0  0
 13 24  1  0  0  0  0
 13 25  1  0  0  0  0
 14 18  1  0  0  0  0
 17 18  1  0  0  0  0
 18 19  2  0  0  0  0
M  END