87865.out.mol
  Mrv0541 03111415023D          

 13 13  0  0  0  0            999 V2000
    0.0000    0.0000    0.0000 C   0  0  0  0  0  0  0  0  0  0  0  0
    1.4080    0.0000    0.0000 C   0  0  0  0  0  0  0  0  0  0  0  0
   -0.7098    1.2201    0.0000 C   0  0  0  0  0  0  0  0  0  0  0  0
   -0.7445   -1.1502    0.0005 O   0  0  0  0  0  0  0  0  0  0  0  0
    2.1091    1.2138   -0.0005 C   0  0  0  0  0  0  0  0  0  0  0  0
    2.2506   -1.4749    0.0007 Cl  0  0  0  0  0  0  0  0  0  0  0  0
    0.0019    2.4282   -0.0005 C   0  0  0  0  0  0  0  0  0  0  0  0
   -2.4022    1.2306   -0.0007 Cl  0  0  0  0  0  0  0  0  0  0  0  0
    1.4072    2.4286   -0.0005 C   0  0  0  0  0  0  0  0  0  0  0  0
    3.8008    1.2111   -0.0012 Cl  0  0  0  0  0  0  0  0  0  0  0  0
   -0.8380    3.8976   -0.0012 Cl  0  0  0  0  0  0  0  0  0  0  0  0
    2.2540    3.8947   -0.0005 Cl  0  0  0  0  0  0  0  0  0  0  0  0
   -0.1395   -1.9117    0.0004 H   0  0  0  0  0  0  0  0  0  0  0  0
  1  2  2  0  0  0  0
  1  3  1  0  0  0  0
  1  4  1  0  0  0  0
  2  5  1  0  0  0  0
  2  6  1  0  0  0  0
  3  7  2  0  0  0  0
  3  8  1  0  0  0  0
  4 13  1  0  0  0  0
  5  9  2  0  0  0  0
  5 10  1  0  0  0  0
  7  9  1  0  0  0  0
  7 11  1  0  0  0  0
  9 12  1  0  0  0  0
M  END