75081.out.mol
  Mrv0541 03111415023D          

  9  8  0  0  0  0            999 V2000
    0.0000    0.0000    0.0000 C   0  0  1  0  0  0  0  0  0  0  0  0
    1.4991    0.0000    0.0000 C   0  0  0  0  0  0  0  0  0  0  0  0
   -0.7140    1.6183    0.0000 S   0  0  0  0  0  0  0  0  0  0  0  0
   -0.3937   -0.4739   -0.9352 H   0  0  0  0  0  0  0  0  0  0  0  0
   -0.3854   -0.5857    0.8699 H   0  0  0  0  0  0  0  0  0  0  0  0
    1.8979    0.5788   -0.8687 H   0  0  0  0  0  0  0  0  0  0  0  0
    1.8982    0.4554    0.9392 H   0  0  0  0  0  0  0  0  0  0  0  0
    1.8846   -1.0476   -0.0695 H   0  0  0  0  0  0  0  0  0  0  0  0
   -0.1292    2.1186    1.0734 H   0  0  0  0  0  0  0  0  0  0  0  0
  1  2  1  0  0  0  0
  1  3  1  0  0  0  0
  1  4  1  0  0  0  0
  1  5  1  0  0  0  0
  2  6  1  0  0  0  0
  2  7  1  0  0  0  0
  2  8  1  0  0  0  0
  3  9  1  0  0  0  0
M  END