935955.out.mol
  Mrv0541 03111415023D          

 13 13  0  0  0  0            999 V2000
    0.0000    0.0000    0.0000 C   0  0  0  0  0  0  0  0  0  0  0  0
    1.4094    0.0000    0.0000 C   0  0  0  0  0  0  0  0  0  0  0  0
   -0.7145    1.2187    0.0000 C   0  0  0  0  0  0  0  0  0  0  0  0
   -0.7424   -1.1523   -0.0005 O   0  0  0  0  0  0  0  0  0  0  0  0
    2.1004    1.2196    0.0005 C   0  0  0  0  0  0  0  0  0  0  0  0
    2.2586   -1.4706   -0.0007 Cl  0  0  0  0  0  0  0  0  0  0  0  0
    0.0032    2.4232    0.0005 C   0  0  0  0  0  0  0  0  0  0  0  0
   -2.4065    1.2319   -0.0006 Cl  0  0  0  0  0  0  0  0  0  0  0  0
    1.4006    2.4268    0.0005 C   0  0  0  0  0  0  0  0  0  0  0  0
    3.7939    1.2585    0.0012 Cl  0  0  0  0  0  0  0  0  0  0  0  0
   -0.8059    3.9124   -0.0001 Cl  0  0  0  0  0  0  0  0  0  0  0  0
   -0.1353   -1.9118   -0.0004 H   0  0  0  0  0  0  0  0  0  0  0  0
    1.9493    3.3827    0.0014 H   0  0  0  0  0  0  0  0  0  0  0  0
  1  2  2  0  0  0  0
  1  3  1  0  0  0  0
  1  4  1  0  0  0  0
  2  5  1  0  0  0  0
  2  6  1  0  0  0  0
  3  7  2  0  0  0  0
  3  8  1  0  0  0  0
  4 12  1  0  0  0  0
  5  9  2  0  0  0  0
  5 10  1  0  0  0  0
  7  9  1  0  0  0  0
  7 11  1  0  0  0  0
  9 13  1  0  0  0  0
M  END