132650.out.mol
  Mrv0541 03111415023D          

 21 23  0  0  0  0            999 V2000
    0.0000    0.0000    0.0000 C   0  0  0  0  0  0  0  0  0  0  0  0
    1.4487    0.0000    0.0000 C   0  0  0  0  0  0  0  0  0  0  0  0
   -0.5161    1.3248    0.0000 C   0  0  0  0  0  0  0  0  0  0  0  0
   -0.8708   -1.0912   -0.0005 C   0  0  0  0  0  0  0  0  0  0  0  0
    1.9647    1.3248    0.0006 C   0  0  0  0  0  0  0  0  0  0  0  0
    2.3195   -1.0912    0.0005 C   0  0  0  0  0  0  0  0  0  0  0  0
    0.7243    2.4866    0.0004 S   0  0  0  0  0  0  0  0  0  0  0  0
   -1.8942    1.5383   -0.0005 C   0  0  0  0  0  0  0  0  0  0  0  0
   -2.2431   -0.8638   -0.0009 C   0  0  0  0  0  0  0  0  0  0  0  0
    3.3428    1.5383    0.0012 C   0  0  0  0  0  0  0  0  0  0  0  0
    3.6918   -0.8638   -0.0002 C   0  0  0  0  0  0  0  0  0  0  0  0
   -2.7504    0.4419   -0.0016 C   0  0  0  0  0  0  0  0  0  0  0  0
    4.1991    0.4419    0.0007 C   0  0  0  0  0  0  0  0  0  0  0  0
   -0.4701   -2.1152   -0.0005 H   0  0  0  0  0  0  0  0  0  0  0  0
    1.9188   -2.1152    0.0005 H   0  0  0  0  0  0  0  0  0  0  0  0
   -2.2980    2.5613   -0.0001 H   0  0  0  0  0  0  0  0  0  0  0  0
   -2.9388   -1.7158   -0.0017 H   0  0  0  0  0  0  0  0  0  0  0  0
    3.7467    2.5613    0.0013 H   0  0  0  0  0  0  0  0  0  0  0  0
    4.3874   -1.7158    0.0006 H   0  0  0  0  0  0  0  0  0  0  0  0
   -3.8391    0.6011   -0.0025 H   0  0  0  0  0  0  0  0  0  0  0  0
    5.2877    0.6011    0.0017 H   0  0  0  0  0  0  0  0  0  0  0  0
  1  2  1  0  0  0  0
  1  3  1  0  0  0  0
  1  4  2  0  0  0  0
  2  5  2  0  0  0  0
  2  6  1  0  0  0  0
  3  7  1  0  0  0  0
  3  8  2  0  0  0  0
  4  9  1  0  0  0  0
  4 14  1  0  0  0  0
  5  7  1  0  0  0  0
  5 10  1  0  0  0  0
  6 11  2  0  0  0  0
  6 15  1  0  0  0  0
  8 12  1  0  0  0  0
  8 16  1  0  0  0  0
  9 12  2  0  0  0  0
  9 17  1  0  0  0  0
 10 13  2  0  0  0  0
 10 18  1  0  0  0  0
 11 13  1  0  0  0  0
 11 19  1  0  0  0  0
 12 20  1  0  0  0  0
 13 21  1  0  0  0  0
M  END