15862074.out.mol
  Mrv0541 03111415023D          

 22 23  0  0  0  0            999 V2000
    0.0000    0.0000    0.0000 C   0  0  0  0  0  0  0  0  0  0  0  0
    1.4642    0.0000    0.0000 C   0  0  0  0  0  0  0  0  0  0  0  0
   -0.7587    1.1825    0.0000 C   0  0  0  0  0  0  0  0  0  0  0  0
   -0.6710   -1.2299    0.0074 C   0  0  0  0  0  0  0  0  0  0  0  0
    2.1821    0.6153   -1.0338 C   0  0  0  0  0  0  0  0  0  0  0  0
    2.1582   -0.6463    1.0324 C   0  0  0  0  0  0  0  0  0  0  0  0
   -2.1558    1.1330   -0.0044 C   0  0  0  0  0  0  0  0  0  0  0  0
   -0.0152    2.7097    0.0239 Cl  0  0  0  0  0  0  0  0  0  0  0  0
   -2.0663   -1.2876    0.0022 C   0  0  0  0  0  0  0  0  0  0  0  0
    3.5756    0.5868   -1.0302 C   0  0  0  0  0  0  0  0  0  0  0  0
    3.5515   -0.6669    1.0332 C   0  0  0  0  0  0  0  0  0  0  0  0
   -2.8134   -0.0995   -0.0060 C   0  0  0  0  0  0  0  0  0  0  0  0
   -2.8281   -2.8020    0.0063 Cl  0  0  0  0  0  0  0  0  0  0  0  0
    4.2620   -0.0516    0.0026 C   0  0  0  0  0  0  0  0  0  0  0  0
   -4.5077   -0.1269   -0.0150 Cl  0  0  0  0  0  0  0  0  0  0  0  0
   -0.0818   -2.1617    0.0139 H   0  0  0  0  0  0  0  0  0  0  0  0
    1.6433    1.1216   -1.8488 H   0  0  0  0  0  0  0  0  0  0  0  0
    1.5981   -1.1328    1.8450 H   0  0  0  0  0  0  0  0  0  0  0  0
   -2.7412    2.0672   -0.0039 H   0  0  0  0  0  0  0  0  0  0  0  0
    4.1334    1.0714   -1.8450 H   0  0  0  0  0  0  0  0  0  0  0  0
    4.0902   -1.1702    1.8495 H   0  0  0  0  0  0  0  0  0  0  0  0
    5.3617   -0.0699    0.0044 H   0  0  0  0  0  0  0  0  0  0  0  0
  1  2  1  0  0  0  0
  1  3  2  0  0  0  0
  1  4  1  0  0  0  0
  2  5  2  0  0  0  0
  2  6  1  0  0  0  0
  3  7  1  0  0  0  0
  3  8  1  0  0  0  0
  4  9  2  0  0  0  0
  4 16  1  0  0  0  0
  5 10  1  0  0  0  0
  5 17  1  0  0  0  0
  6 11  2  0  0  0  0
  6 18  1  0  0  0  0
  7 12  2  0  0  0  0
  7 19  1  0  0  0  0
  9 12  1  0  0  0  0
  9 13  1  0  0  0  0
 10 14  2  0  0  0  0
 10 20  1  0  0  0  0
 11 14  1  0  0  0  0
 11 21  1  0  0  0  0
 12 15  1  0  0  0  0
 14 22  1  0  0  0  0
M  END