2051618.out.mol
  Mrv0541 03111415023D          

 22 23  0  0  0  0            999 V2000
    0.0000    0.0000    0.0000 C   0  0  0  0  0  0  0  0  0  0  0  0
    1.4621    0.0000    0.0000 C   0  0  0  0  0  0  0  0  0  0  0  0
   -0.7040    1.2121    0.0000 C   0  0  0  0  0  0  0  0  0  0  0  0
   -0.7108   -1.2088   -0.0005 C   0  0  0  0  0  0  0  0  0  0  0  0
    2.1711   -0.9149    0.7916 C   0  0  0  0  0  0  0  0  0  0  0  0
    2.1722    0.9140   -0.7917 C   0  0  0  0  0  0  0  0  0  0  0  0
   -2.1008    1.2019   -0.0005 C   0  0  0  0  0  0  0  0  0  0  0  0
   -2.1039   -1.2059   -0.0028 C   0  0  0  0  0  0  0  0  0  0  0  0
    3.5644   -0.9130    0.7907 C   0  0  0  0  0  0  0  0  0  0  0  0
    3.5655    0.9099   -0.7913 C   0  0  0  0  0  0  0  0  0  0  0  0
   -2.8091   -0.0035   -0.0023 C   0  0  0  0  0  0  0  0  0  0  0  0
   -2.9494    2.6766    0.0022 Cl  0  0  0  0  0  0  0  0  0  0  0  0
    4.2642   -0.0024   -0.0008 C   0  0  0  0  0  0  0  0  0  0  0  0
   -0.1544    2.1661    0.0079 H   0  0  0  0  0  0  0  0  0  0  0  0
   -0.1627   -2.1631   -0.0069 H   0  0  0  0  0  0  0  0  0  0  0  0
    1.6226   -1.6312    1.4217 H   0  0  0  0  0  0  0  0  0  0  0  0
    1.6247    1.6317   -1.4212 H   0  0  0  0  0  0  0  0  0  0  0  0
   -2.6537   -2.1590   -0.0064 H   0  0  0  0  0  0  0  0  0  0  0  0
    4.1124   -1.6318    1.4176 H   0  0  0  0  0  0  0  0  0  0  0  0
    4.1143    1.6283   -1.4178 H   0  0  0  0  0  0  0  0  0  0  0  0
   -3.9092   -0.0043   -0.0037 H   0  0  0  0  0  0  0  0  0  0  0  0
    5.3639   -0.0027   -0.0005 H   0  0  0  0  0  0  0  0  0  0  0  0
  1  2  1  0  0  0  0
  1  3  2  0  0  0  0
  1  4  1  0  0  0  0
  2  5  2  0  0  0  0
  2  6  1  0  0  0  0
  3  7  1  0  0  0  0
  3 14  1  0  0  0  0
  4  8  2  0  0  0  0
  4 15  1  0  0  0  0
  5  9  1  0  0  0  0
  5 16  1  0  0  0  0
  6 10  2  0  0  0  0
  6 17  1  0  0  0  0
  7 11  2  0  0  0  0
  7 12  1  0  0  0  0
  8 11  1  0  0  0  0
  8 18  1  0  0  0  0
  9 13  2  0  0  0  0
  9 19  1  0  0  0  0
 10 13  1  0  0  0  0
 10 20  1  0  0  0  0
 11 21  1  0  0  0  0
 13 22  1  0  0  0  0
M  END