536903.out.mol
  Mrv0541 03111415023D          

 18 18  0  0  0  0            999 V2000
    0.0000    0.0000    0.0000 C   0  0  0  0  0  0  0  0  0  0  0  0
    1.3956    0.0000    0.0000 C   0  0  0  0  0  0  0  0  0  0  0  0
   -0.7343    1.2002    0.0000 C   0  0  0  0  0  0  0  0  0  0  0  0
   -0.7728   -1.1459    0.0107 O   0  0  0  0  0  0  0  0  0  0  0  0
    2.0906    1.2329   -0.0128 C   0  0  0  0  0  0  0  0  0  0  0  0
   -0.0410    2.4038   -0.0031 C   0  0  0  0  0  0  0  0  0  0  0  0
   -0.0731   -2.3824   -0.0477 C   0  0  0  0  0  0  0  0  0  0  0  0
    1.3501    2.4368   -0.0052 C   0  0  0  0  0  0  0  0  0  0  0  0
    3.4854    1.2544   -0.1066 N   0  0  2  0  0  0  0  0  0  0  0  0
    1.9559   -0.9448   -0.0026 H   0  0  0  0  0  0  0  0  0  0  0  0
   -1.8314    1.1670    0.0026 H   0  0  0  0  0  0  0  0  0  0  0  0
   -0.6025    3.3510   -0.0027 H   0  0  0  0  0  0  0  0  0  0  0  0
    0.5416   -2.4471   -0.9782 H   0  0  0  0  0  0  0  0  0  0  0  0
    0.5699   -2.5143    0.8563 H   0  0  0  0  0  0  0  0  0  0  0  0
   -0.8928   -3.1449   -0.0622 H   0  0  0  0  0  0  0  0  0  0  0  0
    1.8690    3.4059   -0.0120 H   0  0  0  0  0  0  0  0  0  0  0  0
    3.9367    0.4335    0.2293 H   0  0  0  0  0  0  0  0  0  0  0  0
    3.9072    2.0976    0.2126 H   0  0  0  0  0  0  0  0  0  0  0  0
  1  2  2  0  0  0  0
  1  3  1  0  0  0  0
  1  4  1  0  0  0  0
  2  5  1  0  0  0  0
  2 10  1  0  0  0  0
  3  6  2  0  0  0  0
  3 11  1  0  0  0  0
  4  7  1  0  0  0  0
  5  8  2  0  0  0  0
  5  9  1  0  0  0  0
  6  8  1  0  0  0  0
  6 12  1  0  0  0  0
  7 13  1  0  0  0  0
  7 14  1  0  0  0  0
  7 15  1  0  0  0  0
  8 16  1  0  0  0  0
  9 17  1  0  0  0  0
  9 18  1  0  0  0  0
M  END