2051629.out.mol
  Mrv0541 03111415023D          

 22 23  0  0  0  0            999 V2000
    0.0000    0.0000    0.0000 C   0  0  0  0  0  0  0  0  0  0  0  0
    1.4615    0.0000    0.0000 C   0  0  0  0  0  0  0  0  0  0  0  0
   -0.7106    1.2089    0.0000 C   0  0  0  0  0  0  0  0  0  0  0  0
   -0.7106   -1.2089   -0.0005 C   0  0  0  0  0  0  0  0  0  0  0  0
    2.1714    0.9178   -0.7876 C   0  0  0  0  0  0  0  0  0  0  0  0
    2.1714   -0.9177    0.7877 C   0  0  0  0  0  0  0  0  0  0  0  0
   -2.1030    1.2136    0.0005 C   0  0  0  0  0  0  0  0  0  0  0  0
   -2.1030   -1.2136   -0.0011 C   0  0  0  0  0  0  0  0  0  0  0  0
    3.5647    0.9154   -0.7863 C   0  0  0  0  0  0  0  0  0  0  0  0
    3.5647   -0.9146    0.7873 C   0  0  0  0  0  0  0  0  0  0  0  0
   -2.7975    0.0000    0.0019 C   0  0  0  0  0  0  0  0  0  0  0  0
    4.2641    0.0002    0.0003 C   0  0  0  0  0  0  0  0  0  0  0  0
   -4.4977    0.0000    0.0020 Cl  0  0  0  0  0  0  0  0  0  0  0  0
   -0.1632    2.1640    0.0067 H   0  0  0  0  0  0  0  0  0  0  0  0
   -0.1632   -2.1640   -0.0077 H   0  0  0  0  0  0  0  0  0  0  0  0
    1.6236    1.6373   -1.4146 H   0  0  0  0  0  0  0  0  0  0  0  0
    1.6236   -1.6374    1.4145 H   0  0  0  0  0  0  0  0  0  0  0  0
   -2.6509    2.1679    0.0040 H   0  0  0  0  0  0  0  0  0  0  0  0
   -2.6510   -2.1679   -0.0050 H   0  0  0  0  0  0  0  0  0  0  0  0
    4.1132    1.6367   -1.4100 H   0  0  0  0  0  0  0  0  0  0  0  0
    4.1132   -1.6358    1.4110 H   0  0  0  0  0  0  0  0  0  0  0  0
    5.3637    0.0008    0.0010 H   0  0  0  0  0  0  0  0  0  0  0  0
  1  2  1  0  0  0  0
  1  3  2  0  0  0  0
  1  4  1  0  0  0  0
  2  5  2  0  0  0  0
  2  6  1  0  0  0  0
  3  7  1  0  0  0  0
  3 14  1  0  0  0  0
  4  8  2  0  0  0  0
  4 15  1  0  0  0  0
  5  9  1  0  0  0  0
  5 16  1  0  0  0  0
  6 10  2  0  0  0  0
  6 17  1  0  0  0  0
  7 11  2  0  0  0  0
  7 18  1  0  0  0  0
  8 11  1  0  0  0  0
  8 19  1  0  0  0  0
  9 12  2  0  0  0  0
  9 20  1  0  0  0  0
 10 12  1  0  0  0  0
 10 21  1  0  0  0  0
 11 13  1  0  0  0  0
 12 22  1  0  0  0  0
M  END