1570645.out.mol
  Mrv0541 03111415023D          

 16 16  0  0  0  0            999 V2000
    0.0000    0.0000    0.0000 C   0  0  0  0  0  0  0  0  0  0  0  0
    1.4118    0.0000    0.0000 C   0  0  0  0  0  0  0  0  0  0  0  0
   -0.6637    1.2271    0.0000 C   0  0  0  0  0  0  0  0  0  0  0  0
   -0.7424   -1.2792   -0.0006 C   0  0  0  0  0  0  0  0  0  0  0  0
    2.1365    1.1988    0.0005 C   0  0  0  0  0  0  0  0  0  0  0  0
    2.0269   -1.2314   -0.0006 O   0  0  0  0  0  0  0  0  0  0  0  0
    0.0609    2.4237    0.0005 C   0  0  0  0  0  0  0  0  0  0  0  0
    1.4577    2.4145    0.0005 C   0  0  0  0  0  0  0  0  0  0  0  0
   -0.7713    3.9074    0.0012 Cl  0  0  0  0  0  0  0  0  0  0  0  0
   -1.7649    1.2482   -0.0004 H   0  0  0  0  0  0  0  0  0  0  0  0
   -0.4669   -1.8802    0.9026 H   0  0  0  0  0  0  0  0  0  0  0  0
   -1.8463   -1.1107    0.0000 H   0  0  0  0  0  0  0  0  0  0  0  0
   -0.4679   -1.8788   -0.9050 H   0  0  0  0  0  0  0  0  0  0  0  0
    3.2357    1.1811    0.0010 H   0  0  0  0  0  0  0  0  0  0  0  0
    2.9844   -1.0858   -0.0001 H   0  0  0  0  0  0  0  0  0  0  0  0
    2.0227    3.3589    0.0014 H   0  0  0  0  0  0  0  0  0  0  0  0
  1  2  2  0  0  0  0
  1  3  1  0  0  0  0
  1  4  1  0  0  0  0
  2  5  1  0  0  0  0
  2  6  1  0  0  0  0
  3  7  2  0  0  0  0
  3 10  1  0  0  0  0
  4 11  1  0  0  0  0
  4 12  1  0  0  0  0
  4 13  1  0  0  0  0
  5  8  2  0  0  0  0
  5 14  1  0  0  0  0
  6 15  1  0  0  0  0
  7  8  1  0  0  0  0
  7  9  1  0  0  0  0
  8 16  1  0  0  0  0
M  END