1897456.out.mol
  Mrv0541 03111415023D          

 14 14  0  0  0  0            999 V2000
    0.0000    0.0000    0.0000 C   0  0  0  0  0  0  0  0  0  0  0  0
    1.4054    0.0000    0.0000 C   0  0  0  0  0  0  0  0  0  0  0  0
   -0.7007    1.2197    0.0000 C   0  0  0  0  0  0  0  0  0  0  0  0
   -0.7123   -1.2303   -0.0006 C   0  0  0  0  0  0  0  0  0  0  0  0
    2.1093    1.2165    0.0005 C   0  0  0  0  0  0  0  0  0  0  0  0
    2.2499   -1.4641   -0.0007 Cl  0  0  0  0  0  0  0  0  0  0  0  0
   -0.0004    2.4374   -0.0005 C   0  0  0  0  0  0  0  0  0  0  0  0
   -2.3904    1.2068   -0.0007 Cl  0  0  0  0  0  0  0  0  0  0  0  0
   -1.2950   -2.2367   -0.0010 N   0  0  0  0  0  0  0  0  0  0  0  0
    1.4045    2.4339   -0.0005 C   0  0  0  0  0  0  0  0  0  0  0  0
    3.5309    1.2170    0.0000 C   0  0  0  0  0  0  0  0  0  0  0  0
   -0.8448    3.9015   -0.0012 Cl  0  0  0  0  0  0  0  0  0  0  0  0
    2.2617    3.8899   -0.0005 Cl  0  0  0  0  0  0  0  0  0  0  0  0
    4.6937    1.2174   -0.0005 N   0  0  0  0  0  0  0  0  0  0  0  0
  1  2  2  0  0  0  0
  1  3  1  0  0  0  0
  1  4  1  0  0  0  0
  2  5  1  0  0  0  0
  2  6  1  0  0  0  0
  3  7  2  0  0  0  0
  3  8  1  0  0  0  0
  4  9  3  0  0  0  0
  5 10  2  0  0  0  0
  5 11  1  0  0  0  0
  7 10  1  0  0  0  0
  7 12  1  0  0  0  0
 10 13  1  0  0  0  0
 11 14  3  0  0  0  0
M  END