1024573.out.mol
  Mrv0541 03111415023D          

 23 26  0  0  0  0            999 V2000
    0.0000    0.0000    0.0000 C   0  0  1  0  0  0  0  0  0  0  0  0
    1.5649    0.0000    0.0000 C   0  0  1  0  0  0  0  0  0  0  0  0
   -0.4339    1.4434    0.0000 C   0  0  1  0  0  0  0  0  0  0  0  0
   -0.3665   -1.0064   -1.1235 C   0  0  1  0  0  0  0  0  0  0  0  0
    1.9281   -1.0815   -1.0543 C   0  0  2  0  0  0  0  0  0  0  0  0
    2.0247    1.4419   -0.2437 C   0  0  1  0  0  0  0  0  0  0  0  0
    0.7926    2.3130   -0.0346 C   0  0  1  0  0  0  0  0  0  0  0  0
   -0.1298    2.2652   -1.1325 O   0  0  0  0  0  0  0  0  0  0  0  0
    0.8198   -0.9035   -2.1749 C   0  0  1  0  0  0  0  0  0  0  0  0
    0.0381   -2.3521   -0.4790 C   0  0  0  0  0  0  0  0  0  0  0  0
   -1.9553   -0.8931   -1.7539 Cl  0  0  0  0  0  0  0  0  0  0  0  0
    1.4006   -2.3847   -0.4222 C   0  0  0  0  0  0  0  0  0  0  0  0
    3.5571   -1.0936   -1.5911 Cl  0  0  0  0  0  0  0  0  0  0  0  0
    3.2998    1.9106    0.8689 Cl  0  0  0  0  0  0  0  0  0  0  0  0
    0.7965   -2.2656   -3.2980 Cl  0  0  0  0  0  0  0  0  0  0  0  0
    0.9335    0.5345   -3.1300 Cl  0  0  0  0  0  0  0  0  0  0  0  0
   -1.0584   -3.4770    0.0497 Cl  0  0  0  0  0  0  0  0  0  0  0  0
    2.3899   -3.5613    0.1988 Cl  0  0  0  0  0  0  0  0  0  0  0  0
   -0.3832   -0.4266    0.9697 H   0  0  0  0  0  0  0  0  0  0  0  0
    1.9481   -0.3472    0.9971 H   0  0  0  0  0  0  0  0  0  0  0  0
   -1.3872    1.6878    0.4963 H   0  0  0  0  0  0  0  0  0  0  0  0
    2.4473    1.5804   -1.2712 H   0  0  0  0  0  0  0  0  0  0  0  0
    0.9083    3.2944    0.4491 H   0  0  0  0  0  0  0  0  0  0  0  0
  1  2  1  0  0  0  0
  1  3  1  0  0  0  0
  1  4  1  0  0  0  0
  1 19  1  1  0  0  0
  2  5  1  0  0  0  0
  2  6  1  0  0  0  0
  2 20  1  1  0  0  0
  3  7  1  0  0  0  0
  3  8  1  0  0  0  0
  3 21  1  1  0  0  0
  4  9  1  0  0  0  0
  4 10  1  0  0  0  0
  4 11  1  6  0  0  0
  5  9  1  0  0  0  0
  5 12  1  0  0  0  0
  5 13  1  6  0  0  0
  6  7  1  0  0  0  0
  6 14  1  0  0  0  0
  6 22  1  6  0  0  0
  7  8  1  0  0  0  0
  7 23  1  1  0  0  0
  9 15  1  0  0  0  0
  9 16  1  0  0  0  0
 10 12  2  0  0  0  0
 10 17  1  0  0  0  0
 12 18  1  0  0  0  0
M  END