2539175.out.mol
  Mrv0541 03111415023D          

 17 17  0  0  0  0            999 V2000
    0.0000    0.0000    0.0000 C   0  0  0  0  0  0  0  0  0  0  0  0
    1.4116    0.0000    0.0000 C   0  0  0  0  0  0  0  0  0  0  0  0
   -0.7133    1.2043    0.0000 C   0  0  0  0  0  0  0  0  0  0  0  0
   -0.6188   -1.2366   -0.1169 O   0  0  0  0  0  0  0  0  0  0  0  0
    2.1190    1.2157    0.0183 C   0  0  0  0  0  0  0  0  0  0  0  0
    2.1173   -1.1739   -0.0126 O   0  0  0  0  0  0  0  0  0  0  0  0
   -0.0066    2.4192    0.0208 C   0  0  0  0  0  0  0  0  0  0  0  0
   -2.4058    1.2004   -0.0273 Cl  0  0  0  0  0  0  0  0  0  0  0  0
   -1.1137   -1.7513    1.1239 C   0  0  0  0  0  0  0  0  0  0  0  0
    1.3978    2.4211    0.0337 C   0  0  0  0  0  0  0  0  0  0  0  0
    3.8107    1.2289    0.0240 Cl  0  0  0  0  0  0  0  0  0  0  0  0
   -0.8552    3.8853    0.0288 Cl  0  0  0  0  0  0  0  0  0  0  0  0
    2.2347    3.8932    0.0634 Cl  0  0  0  0  0  0  0  0  0  0  0  0
    1.4840   -1.9014   -0.1453 H   0  0  0  0  0  0  0  0  0  0  0  0
   -1.8541   -1.0490    1.5749 H   0  0  0  0  0  0  0  0  0  0  0  0
   -1.6042   -2.7124    0.8284 H   0  0  0  0  0  0  0  0  0  0  0  0
   -0.2647   -1.9321    1.8266 H   0  0  0  0  0  0  0  0  0  0  0  0
  1  2  2  0  0  0  0
  1  3  1  0  0  0  0
  1  4  1  0  0  0  0
  2  5  1  0  0  0  0
  2  6  1  0  0  0  0
  3  7  2  0  0  0  0
  3  8  1  0  0  0  0
  4  9  1  0  0  0  0
  5 10  2  0  0  0  0
  5 11  1  0  0  0  0
  6 14  1  0  0  0  0
  7 10  1  0  0  0  0
  7 12  1  0  0  0  0
  9 15  1  0  0  0  0
  9 16  1  0  0  0  0
  9 17  1  0  0  0  0
 10 13  1  0  0  0  0
M  END