206440.out.mol
  Mrv0541 03111415023D          

 26 29  0  0  0  0            999 V2000
    0.0000    0.0000    0.0000 C   0  0  0  0  0  0  0  0  0  0  0  0
    1.4390    0.0000    0.0000 C   0  0  0  0  0  0  0  0  0  0  0  0
   -0.5269    1.3390    0.0000 C   0  0  0  0  0  0  0  0  0  0  0  0
   -0.7844   -1.1517    0.0005 C   0  0  0  0  0  0  0  0  0  0  0  0
    1.8379    1.4131   -0.0006 C   0  0  0  0  0  0  0  0  0  0  0  0
    2.0837   -1.2090    0.0005 C   0  0  0  0  0  0  0  0  0  0  0  0
    0.6420    2.2277   -0.0004 C   0  0  0  0  0  0  0  0  0  0  0  0
   -1.8880    1.4962    0.0005 C   0  0  0  0  0  0  0  0  0  0  0  0
   -0.0775   -2.3887    0.0005 C   0  0  0  0  0  0  0  0  0  0  0  0
   -2.1944   -0.9468    0.0010 C   0  0  0  0  0  0  0  0  0  0  0  0
    3.0835    2.0080   -0.0004 C   0  0  0  0  0  0  0  0  0  0  0  0
    1.3004   -2.3995    0.0005 C   0  0  0  0  0  0  0  0  0  0  0  0
    0.7394    3.6046   -0.0003 C   0  0  0  0  0  0  0  0  0  0  0  0
   -2.7090    0.3315    0.0015 C   0  0  0  0  0  0  0  0  0  0  0  0
    3.1635    3.4108   -0.0006 C   0  0  0  0  0  0  0  0  0  0  0  0
    2.0155    4.1927   -0.0005 C   0  0  0  0  0  0  0  0  0  0  0  0
    3.1799   -1.2854    0.0002 H   0  0  0  0  0  0  0  0  0  0  0  0
   -2.3606    2.4883    0.0010 H   0  0  0  0  0  0  0  0  0  0  0  0
   -0.6475   -3.3290    0.0005 H   0  0  0  0  0  0  0  0  0  0  0  0
   -2.8607   -1.8216    0.0010 H   0  0  0  0  0  0  0  0  0  0  0  0
    4.0003    1.4016   -0.0001 H   0  0  0  0  0  0  0  0  0  0  0  0
    1.8356   -3.3619    0.0009 H   0  0  0  0  0  0  0  0  0  0  0  0
   -0.1605    4.2357   -0.0006 H   0  0  0  0  0  0  0  0  0  0  0  0
   -3.8006    0.4770    0.0023 H   0  0  0  0  0  0  0  0  0  0  0  0
    4.1535    3.8906   -0.0009 H   0  0  0  0  0  0  0  0  0  0  0  0
    2.0994    5.2897   -0.0003 H   0  0  0  0  0  0  0  0  0  0  0  0
  1  2  2  0  0  0  0
  1  3  1  0  0  0  0
  1  4  1  0  0  0  0
  2  5  1  0  0  0  0
  2  6  1  0  0  0  0
  3  7  1  0  0  0  0
  3  8  2  0  0  0  0
  4  9  2  0  0  0  0
  4 10  1  0  0  0  0
  5  7  1  0  0  0  0
  5 11  2  0  0  0  0
  6 12  2  0  0  0  0
  6 17  1  0  0  0  0
  7 13  2  0  0  0  0
  8 14  1  0  0  0  0
  8 18  1  0  0  0  0
  9 12  1  0  0  0  0
  9 19  1  0  0  0  0
 10 14  2  0  0  0  0
 10 20  1  0  0  0  0
 11 15  1  0  0  0  0
 11 21  1  0  0  0  0
 12 22  1  0  0  0  0
 13 16  1  0  0  0  0
 13 23  1  0  0  0  0
 14 24  1  0  0  0  0
 15 16  2  0  0  0  0
 15 25  1  0  0  0  0
 16 26  1  0  0  0  0
M  END