140669.out.mol
  Mrv0541 03111415023D          

 37 37  0  0  0  0            999 V2000
    0.0000    0.0000    0.0000 C   0  0  1  0  0  0  0  0  0  0  0  0
    1.5067    0.0000    0.0000 C   0  0  0  0  0  0  0  0  0  0  0  0
   -0.5819    1.4218    0.0000 C   0  0  1  0  0  0  0  0  0  0  0  0
   -0.4586   -0.6613   -1.3098 C   0  0  0  0  0  0  0  0  0  0  0  0
   -0.5822   -0.8257    1.1383 C   0  0  0  0  0  0  0  0  0  0  0  0
    2.2523   -0.7351    0.9324 C   0  0  0  0  0  0  0  0  0  0  0  0
    2.1973    0.7114   -0.9927 C   0  0  0  0  0  0  0  0  0  0  0  0
   -0.4544    2.3239    1.2310 C   0  0  1  0  0  0  0  0  0  0  0  0
    3.6429   -0.7570    0.8915 C   0  0  0  0  0  0  0  0  0  0  0  0
    3.5875    0.7059   -1.0521 C   0  0  0  0  0  0  0  0  0  0  0  0
    0.9065    2.2252    1.8954 C   0  0  0  0  0  0  0  0  0  0  0  0
   -0.6503    3.7660    0.7553 C   0  0  0  0  0  0  0  0  0  0  0  0
   -1.5453    2.0259    2.2513 C   0  0  0  0  0  0  0  0  0  0  0  0
    4.3113   -0.0306   -0.1051 C   0  0  0  0  0  0  0  0  0  0  0  0
    5.6869   -0.0876   -0.0960 O   0  0  0  0  0  0  0  0  0  0  0  0
   -0.1162    1.9660   -0.8673 H   0  0  0  0  0  0  0  0  0  0  0  0
   -1.6797    1.3272   -0.2281 H   0  0  0  0  0  0  0  0  0  0  0  0
   -0.0153   -1.6813   -1.3991 H   0  0  0  0  0  0  0  0  0  0  0  0
   -1.5709   -0.7520   -1.3238 H   0  0  0  0  0  0  0  0  0  0  0  0
   -0.1378   -0.0545   -2.1893 H   0  0  0  0  0  0  0  0  0  0  0  0
   -0.1826   -0.4954    2.1266 H   0  0  0  0  0  0  0  0  0  0  0  0
   -1.6942   -0.7170    1.1508 H   0  0  0  0  0  0  0  0  0  0  0  0
   -0.3355   -1.9065    0.9991 H   0  0  0  0  0  0  0  0  0  0  0  0
    1.7492   -1.3154    1.7211 H   0  0  0  0  0  0  0  0  0  0  0  0
    1.6380    1.2851   -1.7480 H   0  0  0  0  0  0  0  0  0  0  0  0
    4.2236   -1.3342    1.6245 H   0  0  0  0  0  0  0  0  0  0  0  0
    4.1121    1.2709   -1.8349 H   0  0  0  0  0  0  0  0  0  0  0  0
    1.7141    2.4293    1.1512 H   0  0  0  0  0  0  0  0  0  0  0  0
    0.9839    2.9698    2.7241 H   0  0  0  0  0  0  0  0  0  0  0  0
    1.0687    1.2042    2.3177 H   0  0  0  0  0  0  0  0  0  0  0  0
   -1.6269    3.8691    0.2252 H   0  0  0  0  0  0  0  0  0  0  0  0
   -0.6419    4.4628    1.6271 H   0  0  0  0  0  0  0  0  0  0  0  0
    0.1698    4.0619    0.0586 H   0  0  0  0  0  0  0  0  0  0  0  0
   -1.4138    1.0151    2.7023 H   0  0  0  0  0  0  0  0  0  0  0  0
   -1.5113    2.7806    3.0745 H   0  0  0  0  0  0  0  0  0  0  0  0
   -2.5518    2.0729    1.7702 H   0  0  0  0  0  0  0  0  0  0  0  0
    6.0107    0.4523   -0.8312 H   0  0  0  0  0  0  0  0  0  0  0  0
  1  2  1  0  0  0  0
  1  3  1  0  0  0  0
  1  4  1  0  0  0  0
  1  5  1  0  0  0  0
  2  6  2  0  0  0  0
  2  7  1  0  0  0  0
  3  8  1  0  0  0  0
  3 16  1  0  0  0  0
  3 17  1  0  0  0  0
  4 18  1  0  0  0  0
  4 19  1  0  0  0  0
  4 20  1  0  0  0  0
  5 21  1  0  0  0  0
  5 22  1  0  0  0  0
  5 23  1  0  0  0  0
  6  9  1  0  0  0  0
  6 24  1  0  0  0  0
  7 10  2  0  0  0  0
  7 25  1  0  0  0  0
  8 11  1  0  0  0  0
  8 12  1  0  0  0  0
  8 13  1  0  0  0  0
  9 14  2  0  0  0  0
  9 26  1  0  0  0  0
 10 14  1  0  0  0  0
 10 27  1  0  0  0  0
 11 28  1  0  0  0  0
 11 29  1  0  0  0  0
 11 30  1  0  0  0  0
 12 31  1  0  0  0  0
 12 32  1  0  0  0  0
 12 33  1  0  0  0  0
 13 34  1  0  0  0  0
 13 35  1  0  0  0  0
 13 36  1  0  0  0  0
 14 15  1  0  0  0  0
 15 37  1  0  0  0  0
M  END