106478.out.mol
  Mrv0541 03111415023D          

 14 14  0  0  0  0            999 V2000
    0.0000    0.0000    0.0000 C   0  0  0  0  0  0  0  0  0  0  0  0
    1.4154    0.0000    0.0000 C   0  0  0  0  0  0  0  0  0  0  0  0
   -0.6733    1.2450    0.0000 C   0  0  0  0  0  0  0  0  0  0  0  0
   -0.7140   -1.1978    0.0794 N   0  0  2  0  0  0  0  0  0  0  0  0
    2.1225    1.1953    0.0146 C   0  0  0  0  0  0  0  0  0  0  0  0
    0.0416    2.4356    0.0146 C   0  0  0  0  0  0  0  0  0  0  0  0
    1.4389    2.4141    0.0211 C   0  0  0  0  0  0  0  0  0  0  0  0
    2.3097    3.8751    0.0348 Cl  0  0  0  0  0  0  0  0  0  0  0  0
    1.9684   -0.9513   -0.0016 H   0  0  0  0  0  0  0  0  0  0  0  0
   -1.7731    1.2789   -0.0016 H   0  0  0  0  0  0  0  0  0  0  0  0
   -0.2213   -1.9981   -0.2482 H   0  0  0  0  0  0  0  0  0  0  0  0
   -1.6523   -1.1452   -0.2481 H   0  0  0  0  0  0  0  0  0  0  0  0
    3.2234    1.1774    0.0198 H   0  0  0  0  0  0  0  0  0  0  0  0
   -0.4978    3.3955    0.0198 H   0  0  0  0  0  0  0  0  0  0  0  0
  1  2  2  0  0  0  0
  1  3  1  0  0  0  0
  1  4  1  0  0  0  0
  2  5  1  0  0  0  0
  2  9  1  0  0  0  0
  3  6  2  0  0  0  0
  3 10  1  0  0  0  0
  4 11  1  0  0  0  0
  4 12  1  0  0  0  0
  5  7  2  0  0  0  0
  5 13  1  0  0  0  0
  6  7  1  0  0  0  0
  6 14  1  0  0  0  0
  7  8  1  0  0  0  0
M  END