115311.out.mol
  Mrv0541 03111415023D          

 36 37  0  0  0  0            999 V2000
    0.0000    0.0000    0.0000 C   0  0  1  0  0  0  0  0  0  0  0  0
    1.5606    0.0000    0.0000 C   0  0  1  0  0  0  0  0  0  0  0  0
   -0.3471    1.5301    0.0000 C   0  0  1  0  0  0  0  0  0  0  0  0
   -0.3616   -0.3952   -1.4558 C   0  0  1  0  0  0  0  0  0  0  0  0
   -0.6373   -0.8425    1.0543 C   0  0  0  0  0  0  0  0  0  0  0  0
    1.9324    1.2927   -0.7658 C   0  0  1  0  0  0  0  0  0  0  0  0
    2.1148    0.1063    1.3209 O   0  0  0  0  0  0  0  0  0  0  0  0
    0.5677    1.8338   -1.2300 C   0  0  1  0  0  0  0  0  0  0  0  0
   -1.8123    1.8234   -0.2479 C   0  0  0  0  0  0  0  0  0  0  0  0
    0.0572    2.2740    1.2539 C   0  0  0  0  0  0  0  0  0  0  0  0
    0.0435    0.8370   -2.2836 C   0  0  1  0  0  0  0  0  0  0  0  0
    2.5400   -1.0337    1.9384 C   0  0  0  0  0  0  0  0  0  0  0  0
    3.1299   -0.7654    3.2866 C   0  0  1  0  0  0  0  0  0  0  0  0
    2.3938   -2.1261    1.3892 O   0  0  0  0  0  0  0  0  0  0  0  0
    4.8894   -0.6817    3.2954 S   0  0  0  0  0  0  0  0  0  0  0  0
    5.2119    0.8466    2.8986 C   0  0  0  0  0  0  0  0  0  0  0  0
    5.5064    1.9437    2.6192 N   0  0  0  0  0  0  0  0  0  0  0  0
    1.9618   -0.9213   -0.4983 H   0  0  0  0  0  0  0  0  0  0  0  0
    0.1902   -1.3102   -1.7773 H   0  0  0  0  0  0  0  0  0  0  0  0
   -1.4540   -0.6071   -1.5405 H   0  0  0  0  0  0  0  0  0  0  0  0
   -0.4143   -0.4233    2.0666 H   0  0  0  0  0  0  0  0  0  0  0  0
   -1.7454   -0.8707    0.9162 H   0  0  0  0  0  0  0  0  0  0  0  0
   -0.2375   -1.8859    1.0069 H   0  0  0  0  0  0  0  0  0  0  0  0
    2.4547    2.0210   -0.1001 H   0  0  0  0  0  0  0  0  0  0  0  0
    2.6006    1.0600   -1.6279 H   0  0  0  0  0  0  0  0  0  0  0  0
    0.5832    2.8898   -1.5585 H   0  0  0  0  0  0  0  0  0  0  0  0
   -2.4247    1.4130    0.5924 H   0  0  0  0  0  0  0  0  0  0  0  0
   -1.9715    2.9286   -0.2973 H   0  0  0  0  0  0  0  0  0  0  0  0
   -2.1865    1.3783   -1.1989 H   0  0  0  0  0  0  0  0  0  0  0  0
    1.1066    2.0545    1.5609 H   0  0  0  0  0  0  0  0  0  0  0  0
   -0.0351    3.3745    1.0832 H   0  0  0  0  0  0  0  0  0  0  0  0
   -0.6167    1.9869    2.0982 H   0  0  0  0  0  0  0  0  0  0  0  0
    0.8346    0.5852   -3.0296 H   0  0  0  0  0  0  0  0  0  0  0  0
   -0.8270    1.2612   -2.8380 H   0  0  0  0  0  0  0  0  0  0  0  0
    2.6615    0.1523    3.7226 H   0  0  0  0  0  0  0  0  0  0  0  0
    2.8907   -1.6404    3.9501 H   0  0  0  0  0  0  0  0  0  0  0  0
  1  2  1  0  0  0  0
  1  3  1  0  0  0  0
  1  4  1  0  0  0  0
  1  5  1  1  0  0  0
  2  6  1  0  0  0  0
  2  7  1  0  0  0  0
  2 18  1  6  0  0  0
  3  8  1  0  0  0  0
  3  9  1  0  0  0  0
  3 10  1  0  0  0  0
  4 11  1  0  0  0  0
  4 19  1  0  0  0  0
  4 20  1  0  0  0  0
  5 21  1  0  0  0  0
  5 22  1  0  0  0  0
  5 23  1  0  0  0  0
  6  8  1  0  0  0  0
  6 24  1  0  0  0  0
  6 25  1  0  0  0  0
  7 12  1  0  0  0  0
  8 11  1  0  0  0  0
  8 26  1  6  0  0  0
  9 27  1  0  0  0  0
  9 28  1  0  0  0  0
  9 29  1  0  0  0  0
 10 30  1  0  0  0  0
 10 31  1  0  0  0  0
 10 32  1  0  0  0  0
 11 33  1  0  0  0  0
 11 34  1  0  0  0  0
 12 13  1  0  0  0  0
 12 14  2  0  0  0  0
 13 15  1  0  0  0  0
 13 35  1  0  0  0  0
 13 36  1  0  0  0  0
 15 16  1  0  0  0  0
 16 17  3  0  0  0  0
M  END