76448.out.mol
  Mrv0541 03111415023D          

 22 24  0  0  0  0            999 V2000
    0.0000    0.0000    0.0000 C   0  0  1  0  0  0  0  0  0  0  0  0
    1.5537    0.0000    0.0000 C   0  0  1  0  0  0  0  0  0  0  0  0
   -0.3717    1.5438    0.0000 C   0  0  1  0  0  0  0  0  0  0  0  0
   -0.3444   -0.3217   -1.4711 C   0  0  0  0  0  0  0  0  0  0  0  0
   -0.8127   -0.9819    1.1479 Cl  0  0  0  0  0  0  0  0  0  0  0  0
    1.9033    1.2654   -0.8718 C   0  0  1  0  0  0  0  0  0  0  0  0
    2.4059    0.1474    1.2762 C   0  0  1  0  0  0  0  0  0  0  0  0
    0.5218    1.8422   -1.2762 C   0  0  1  0  0  0  0  0  0  0  0  0
   -2.0810    1.8102   -0.3072 Cl  0  0  0  0  0  0  0  0  0  0  0  0
    0.0649    2.4327    1.4240 Cl  0  0  0  0  0  0  0  0  0  0  0  0
   -0.0442    0.7736   -2.2232 C   0  0  0  0  0  0  0  0  0  0  0  0
   -0.9536   -1.7838   -1.9652 Cl  0  0  0  0  0  0  0  0  0  0  0  0
    2.7735    2.1094    0.0009 C   0  0  0  0  0  0  0  0  0  0  0  0
    3.0670    1.4937    1.1583 C   0  0  0  0  0  0  0  0  0  0  0  0
    1.6036   -0.0303    2.8209 Cl  0  0  0  0  0  0  0  0  0  0  0  0
    0.5163    3.4600   -1.8503 Cl  0  0  0  0  0  0  0  0  0  0  0  0
   -0.1996    0.9901   -3.8606 Cl  0  0  0  0  0  0  0  0  0  0  0  0
    1.8877   -0.9390   -0.5155 H   0  0  0  0  0  0  0  0  0  0  0  0
    2.4661    0.9764   -1.7972 H   0  0  0  0  0  0  0  0  0  0  0  0
    3.1843   -0.6626    1.2786 H   0  0  0  0  0  0  0  0  0  0  0  0
    3.1131    3.0919   -0.3350 H   0  0  0  0  0  0  0  0  0  0  0  0
    3.6988    1.8677    1.9673 H   0  0  0  0  0  0  0  0  0  0  0  0
  1  2  1  0  0  0  0
  1  3  1  0  0  0  0
  1  4  1  0  0  0  0
  1  5  1  1  0  0  0
  2  6  1  0  0  0  0
  2  7  1  0  0  0  0
  2 18  1  6  0  0  0
  3  8  1  0  0  0  0
  3  9  1  0  0  0  0
  3 10  1  0  0  0  0
  4 11  2  0  0  0  0
  4 12  1  0  0  0  0
  6  8  1  0  0  0  0
  6 13  1  0  0  0  0
  6 19  1  6  0  0  0
  7 14  1  0  0  0  0
  7 15  1  0  0  0  0
  7 20  1  6  0  0  0
  8 11  1  0  0  0  0
  8 16  1  6  0  0  0
 11 17  1  0  0  0  0
 13 14  2  0  0  0  0
 13 21  1  0  0  0  0
 14 22  1  0  0  0  0
M  END