143500.out.mol
  Mrv0541 03111415023D          

 21 25  0  0  0  0            999 V2000
    0.0000    0.0000    0.0000 C   0  0  2  0  0  0  0  0  0  0  0  0
    1.5841    0.0000    0.0000 C   0  0  1  0  0  0  0  0  0  0  0  0
   -0.3563    1.5508    0.0000 C   0  0  1  0  0  0  0  0  0  0  0  0
   -0.3619   -0.0428    1.5492 C   0  0  2  0  0  0  0  0  0  0  0  0
   -0.7901   -1.0469   -1.0712 Cl  0  0  0  0  0  0  0  0  0  0  0  0
    1.9405    1.5508    0.0007 C   0  0  1  0  0  0  0  0  0  0  0  0
    1.9460   -0.0428    1.5492 C   0  0  2  0  0  0  0  0  0  0  0  0
    2.3742   -1.0469   -1.0712 Cl  0  0  0  0  0  0  0  0  0  0  0  0
    0.0000    1.5070    1.5502 C   0  0  1  0  0  0  0  0  0  0  0  0
    0.7921    2.2795   -0.7071 C   0  0  1  0  0  0  0  0  0  0  0  0
   -1.9364    2.0047   -0.4412 Cl  0  0  0  0  0  0  0  0  0  0  0  0
    0.7921   -0.7428    2.2298 C   0  0  0  0  0  0  0  0  0  0  0  0
   -1.9415   -0.4961    1.9899 Cl  0  0  0  0  0  0  0  0  0  0  0  0
    1.5841    1.5070    1.5502 C   0  0  2  0  0  0  0  0  0  0  0  0
    3.5205    2.0049   -0.4403 Cl  0  0  0  0  0  0  0  0  0  0  0  0
    3.5256   -0.4961    1.9899 Cl  0  0  0  0  0  0  0  0  0  0  0  0
   -0.7901    2.5482    2.6270 Cl  0  0  0  0  0  0  0  0  0  0  0  0
    0.7921    1.9986   -2.4322 Cl  0  0  0  0  0  0  0  0  0  0  0  0
    0.7921    3.9958   -0.3759 Cl  0  0  0  0  0  0  0  0  0  0  0  0
    0.7921   -1.6144    3.0772 O   0  0  0  0  0  0  0  0  0  0  0  0
    2.3742    2.5482    2.6270 Cl  0  0  0  0  0  0  0  0  0  0  0  0
  1  2  1  0  0  0  0
  1  3  1  0  0  0  0
  1  4  1  0  0  0  0
  1  5  1  6  0  0  0
  2  6  1  0  0  0  0
  2  7  1  0  0  0  0
  2  8  1  6  0  0  0
  3  9  1  0  0  0  0
  3 10  1  0  0  0  0
  3 11  1  6  0  0  0
  4  9  1  0  0  0  0
  4 12  1  0  0  0  0
  4 13  1  1  0  0  0
  6 10  1  0  0  0  0
  6 14  1  0  0  0  0
  6 15  1  6  0  0  0
  7 12  1  0  0  0  0
  7 14  1  0  0  0  0
  7 16  1  1  0  0  0
  9 14  1  0  0  0  0
  9 17  1  1  0  0  0
 10 18  1  0  0  0  0
 10 19  1  0  0  0  0
 12 20  2  0  0  0  0
 14 21  1  1  0  0  0
M  END