25875518.out.mol
  Mrv0541 03111415023D          

 35 36  0  0  0  0            999 V2000
    0.0000    0.0000    0.0000 C   0  0  0  0  0  0  0  0  0  0  0  0
    1.4006    0.0000    0.0000 C   0  0  0  0  0  0  0  0  0  0  0  0
   -0.6882    1.2238    0.0000 C   0  0  0  0  0  0  0  0  0  0  0  0
   -0.7914   -1.2338   -0.0135 C   0  0  0  0  0  0  0  0  0  0  0  0
    2.1055    1.2024    0.0021 C   0  0  0  0  0  0  0  0  0  0  0  0
    0.0097    2.4273    0.0039 C   0  0  0  0  0  0  0  0  0  0  0  0
   -0.2603   -2.4011    0.2344 N   0  0  0  0  0  0  0  0  0  0  0  0
    1.4090    2.4141    0.0051 C   0  0  0  0  0  0  0  0  0  0  0  0
   -1.0164   -3.5032    0.3324 N   0  0  2  0  0  0  0  0  0  0  0  0
    2.2652    3.8815    0.0083 Cl  0  0  0  0  0  0  0  0  0  0  0  0
   -0.3117   -4.7637    0.0638 C   0  0  0  0  0  0  0  0  0  0  0  0
    0.7928   -5.0391    0.9774 N   0  0  1  0  0  0  0  0  0  0  0  0
   -0.7849   -5.5649   -0.8379 N   0  0  0  0  0  0  0  0  0  0  0  0
    1.8723   -5.5999    0.4236 N   0  0  0  0  0  0  0  0  0  0  0  0
    3.0395   -5.5486    1.0101 C   0  0  0  0  0  0  0  0  0  0  0  0
    4.2097   -6.2525    0.4791 C   0  0  0  0  0  0  0  0  0  0  0  0
    5.4141   -6.1583    1.1952 C   0  0  0  0  0  0  0  0  0  0  0  0
    4.1723   -7.0038   -0.7027 C   0  0  0  0  0  0  0  0  0  0  0  0
    6.5605   -6.8016    0.7401 C   0  0  0  0  0  0  0  0  0  0  0  0
    5.3176   -7.6507   -1.1640 C   0  0  0  0  0  0  0  0  0  0  0  0
    6.5097   -7.5488   -0.4419 C   0  0  0  0  0  0  0  0  0  0  0  0
    7.9079   -8.3357   -1.0018 Cl  0  0  0  0  0  0  0  0  0  0  0  0
    1.9584   -0.9494   -0.0048 H   0  0  0  0  0  0  0  0  0  0  0  0
   -1.7890    1.2364   -0.0004 H   0  0  0  0  0  0  0  0  0  0  0  0
   -1.8707   -1.0773   -0.2378 H   0  0  0  0  0  0  0  0  0  0  0  0
    3.2062    1.1937    0.0007 H   0  0  0  0  0  0  0  0  0  0  0  0
   -0.5374    3.3823    0.0059 H   0  0  0  0  0  0  0  0  0  0  0  0
   -1.9168   -3.4844   -0.1346 H   0  0  0  0  0  0  0  0  0  0  0  0
    0.9461   -4.3166    1.6679 H   0  0  0  0  0  0  0  0  0  0  0  0
   -0.3459   -6.4544   -0.9326 H   0  0  0  0  0  0  0  0  0  0  0  0
    3.2367   -4.9838    1.9489 H   0  0  0  0  0  0  0  0  0  0  0  0
    5.4567   -5.5722    2.1261 H   0  0  0  0  0  0  0  0  0  0  0  0
    3.2383   -7.0913   -1.2795 H   0  0  0  0  0  0  0  0  0  0  0  0
    7.4998   -6.7226    1.3080 H   0  0  0  0  0  0  0  0  0  0  0  0
    5.2790   -8.2384   -2.0938 H   0  0  0  0  0  0  0  0  0  0  0  0
  1  2  2  0  0  0  0
  1  3  1  0  0  0  0
  1  4  1  0  0  0  0
  2  5  1  0  0  0  0
  2 23  1  0  0  0  0
  3  6  2  0  0  0  0
  3 24  1  0  0  0  0
  4  7  2  0  0  0  0
  4 25  1  0  0  0  0
  5  8  2  0  0  0  0
  5 26  1  0  0  0  0
  6  8  1  0  0  0  0
  6 27  1  0  0  0  0
  7  9  1  0  0  0  0
  8 10  1  0  0  0  0
  9 11  1  0  0  0  0
  9 28  1  0  0  0  0
 11 12  1  0  0  0  0
 11 13  2  0  0  0  0
 12 14  1  0  0  0  0
 12 29  1  0  0  0  0
 13 30  1  0  0  0  0
 14 15  2  0  0  0  0
 15 16  1  0  0  0  0
 15 31  1  0  0  0  0
 16 17  2  0  0  0  0
 16 18  1  0  0  0  0
 17 19  1  0  0  0  0
 17 32  1  0  0  0  0
 18 20  2  0  0  0  0
 18 33  1  0  0  0  0
 19 21  2  0  0  0  0
 19 34  1  0  0  0  0
 20 21  1  0  0  0  0
 20 35  1  0  0  0  0
 21 22  1  0  0  0  0
M  END