77474.out.mol
  Mrv0541 03111415023D          

 11 11  0  0  0  0            999 V2000
    0.0000    0.0000    0.0000 C   0  0  1  0  0  0  0  0  0  0  0  0
    1.5270    0.0000    0.0000 C   0  0  0  0  0  0  0  0  0  0  0  0
   -0.3277    1.4914    0.0000 C   0  0  0  0  0  0  0  0  0  0  0  0
   -0.6226   -0.7743   -1.4426 Cl  0  0  0  0  0  0  0  0  0  0  0  0
   -0.6227   -0.7743    1.4426 Cl  0  0  0  0  0  0  0  0  0  0  0  0
    1.9840    1.2867    0.0006 C   0  0  0  0  0  0  0  0  0  0  0  0
    2.4061   -1.4071   -0.0006 Cl  0  0  0  0  0  0  0  0  0  0  0  0
    0.8309    2.2139   -0.0006 C   0  0  0  0  0  0  0  0  0  0  0  0
   -1.8907    2.0481   -0.0006 Cl  0  0  0  0  0  0  0  0  0  0  0  0
    3.5664    1.8023    0.0014 Cl  0  0  0  0  0  0  0  0  0  0  0  0
    0.9950    3.8700   -0.0014 Cl  0  0  0  0  0  0  0  0  0  0  0  0
  1  2  1  0  0  0  0
  1  3  1  0  0  0  0
  1  4  1  0  0  0  0
  1  5  1  0  0  0  0
  2  6  2  0  0  0  0
  2  7  1  0  0  0  0
  3  8  2  0  0  0  0
  3  9  1  0  0  0  0
  6  8  1  0  0  0  0
  6 10  1  0  0  0  0
  8 11  1  0  0  0  0
M  END