72435.out.mol
  Mrv0541 03111415023D          

 36 37  0  0  0  0            999 V2000
    0.0000    0.0000    0.0000 C   0  0  1  0  0  0  0  0  0  0  0  0
    1.4993    0.0000    0.0000 C   0  0  0  0  0  0  0  0  0  0  0  0
   -0.5672    1.3873    0.0000 C   0  0  0  0  0  0  0  0  0  0  0  0
   -0.6352   -0.8778   -1.1023 C   0  0  1  0  0  0  0  0  0  0  0  0
    2.2745    0.1465   -1.1581 C   0  0  0  0  0  0  0  0  0  0  0  0
    2.1500   -0.1374    1.2335 C   0  0  0  0  0  0  0  0  0  0  0  0
   -1.6648    1.6720    0.8285 C   0  0  0  0  0  0  0  0  0  0  0  0
   -0.0199    2.4118   -0.7759 C   0  0  0  0  0  0  0  0  0  0  0  0
   -2.3267   -1.2065   -0.6669 Cl  0  0  0  0  0  0  0  0  0  0  0  0
   -0.6285   -0.1226   -2.6971 Cl  0  0  0  0  0  0  0  0  0  0  0  0
    0.2021   -2.4323   -1.2062 Cl  0  0  0  0  0  0  0  0  0  0  0  0
    3.6621    0.1558   -1.0940 C   0  0  0  0  0  0  0  0  0  0  0  0
    3.5401   -0.1267    1.3212 C   0  0  0  0  0  0  0  0  0  0  0  0
   -2.2103    2.9470    0.8774 C   0  0  0  0  0  0  0  0  0  0  0  0
   -0.5522    3.6999   -0.7425 C   0  0  0  0  0  0  0  0  0  0  0  0
    4.2977    0.0203    0.1538 C   0  0  0  0  0  0  0  0  0  0  0  0
   -1.6488    3.9664    0.0846 C   0  0  0  0  0  0  0  0  0  0  0  0
    5.6773    0.0465    0.1112 O   0  0  0  0  0  0  0  0  0  0  0  0
   -2.2594    5.1985    0.2049 O   0  0  0  0  0  0  0  0  0  0  0  0
    6.3470   -0.1034    1.3579 C   0  0  0  0  0  0  0  0  0  0  0  0
   -1.7256    6.2453   -0.5979 C   0  0  0  0  0  0  0  0  0  0  0  0
   -0.3196   -0.4937    0.9733 H   0  0  0  0  0  0  0  0  0  0  0  0
    1.7908    0.2464   -2.1428 H   0  0  0  0  0  0  0  0  0  0  0  0
    1.5599   -0.2537    2.1562 H   0  0  0  0  0  0  0  0  0  0  0  0
   -2.1066    0.8737    1.4456 H   0  0  0  0  0  0  0  0  0  0  0  0
    0.8471    2.2063   -1.4241 H   0  0  0  0  0  0  0  0  0  0  0  0
    4.2708    0.2656   -2.0027 H   0  0  0  0  0  0  0  0  0  0  0  0
    4.0232   -0.2348    2.3019 H   0  0  0  0  0  0  0  0  0  0  0  0
   -3.0710    3.1744    1.5217 H   0  0  0  0  0  0  0  0  0  0  0  0
   -0.1045    4.4874   -1.3638 H   0  0  0  0  0  0  0  0  0  0  0  0
    6.0837    0.7330    2.0499 H   0  0  0  0  0  0  0  0  0  0  0  0
    6.1004   -1.0888    1.8224 H   0  0  0  0  0  0  0  0  0  0  0  0
    7.4300   -0.0584    1.0778 H   0  0  0  0  0  0  0  0  0  0  0  0
   -0.6619    6.4483   -0.3241 H   0  0  0  0  0  0  0  0  0  0  0  0
   -1.8100    5.9930   -1.6827 H   0  0  0  0  0  0  0  0  0  0  0  0
   -2.3732    7.1227   -0.3445 H   0  0  0  0  0  0  0  0  0  0  0  0
  1  2  1  0  0  0  0
  1  3  1  0  0  0  0
  1  4  1  0  0  0  0
  1 22  1  0  0  0  0
  2  5  2  0  0  0  0
  2  6  1  0  0  0  0
  3  7  2  0  0  0  0
  3  8  1  0  0  0  0
  4  9  1  0  0  0  0
  4 10  1  0  0  0  0
  4 11  1  0  0  0  0
  5 12  1  0  0  0  0
  5 23  1  0  0  0  0
  6 13  2  0  0  0  0
  6 24  1  0  0  0  0
  7 14  1  0  0  0  0
  7 25  1  0  0  0  0
  8 15  2  0  0  0  0
  8 26  1  0  0  0  0
 12 16  2  0  0  0  0
 12 27  1  0  0  0  0
 13 16  1  0  0  0  0
 13 28  1  0  0  0  0
 14 17  2  0  0  0  0
 14 29  1  0  0  0  0
 15 17  1  0  0  0  0
 15 30  1  0  0  0  0
 16 18  1  0  0  0  0
 17 19  1  0  0  0  0
 18 20  1  0  0  0  0
 19 21  1  0  0  0  0
 20 31  1  0  0  0  0
 20 32  1  0  0  0  0
 20 33  1  0  0  0  0
 21 34  1  0  0  0  0
 21 35  1  0  0  0  0
 21 36  1  0  0  0  0
M  END