101202.out.mol
  Mrv0541 03111415023D          

 28 29  0  0  0  0            999 V2000
    0.0000    0.0000    0.0000 C   0  0  0  0  0  0  0  0  0  0  0  0
    1.4016    0.0000    0.0000 C   0  0  0  0  0  0  0  0  0  0  0  0
   -0.7059    1.2032    0.0000 C   0  0  0  0  0  0  0  0  0  0  0  0
   -0.8760   -1.4540    0.0052 Cl  0  0  0  0  0  0  0  0  0  0  0  0
    2.0854    1.2199   -0.0035 C   0  0  0  0  0  0  0  0  0  0  0  0
    2.2829   -1.4478    0.0051 Cl  0  0  0  0  0  0  0  0  0  0  0  0
   -0.0154    2.4369   -0.0115 C   0  0  0  0  0  0  0  0  0  0  0  0
    1.3962    2.4260   -0.0128 C   0  0  0  0  0  0  0  0  0  0  0  0
   -0.7658    3.6253   -0.0887 N   0  0  0  0  0  0  0  0  0  0  0  0
   -0.3395    4.8481    0.4805 C   0  0  0  0  0  0  0  0  0  0  0  0
   -1.2949    5.8875    0.5224 N   0  0  0  0  0  0  0  0  0  0  0  0
    0.8188    4.9971    0.9241 O   0  0  0  0  0  0  0  0  0  0  0  0
   -0.9674    7.2199    0.8448 C   0  0  0  0  0  0  0  0  0  0  0  0
   -1.7233    8.2645    0.2605 C   0  0  0  0  0  0  0  0  0  0  0  0
    0.0381    7.5496    1.7778 C   0  0  0  0  0  0  0  0  0  0  0  0
   -1.4831    9.5884    0.6064 C   0  0  0  0  0  0  0  0  0  0  0  0
    0.2761    8.8790    2.1118 C   0  0  0  0  0  0  0  0  0  0  0  0
   -0.4822    9.8984    1.5313 C   0  0  0  0  0  0  0  0  0  0  0  0
   -0.1883   11.5193    1.9480 Cl  0  0  0  0  0  0  0  0  0  0  0  0
   -1.8074    1.1753    0.0046 H   0  0  0  0  0  0  0  0  0  0  0  0
    3.1876    1.2287   -0.0009 H   0  0  0  0  0  0  0  0  0  0  0  0
    1.9642    3.3719   -0.0104 H   0  0  0  0  0  0  0  0  0  0  0  0
   -1.7456    3.4871   -0.2138 H   0  0  0  0  0  0  0  0  0  0  0  0
   -2.1130    5.7898   -0.0393 H   0  0  0  0  0  0  0  0  0  0  0  0
   -2.5146    8.0432   -0.4722 H   0  0  0  0  0  0  0  0  0  0  0  0
    0.6521    6.7598    2.2425 H   0  0  0  0  0  0  0  0  0  0  0  0
   -2.0818   10.3894    0.1456 H   0  0  0  0  0  0  0  0  0  0  0  0
    1.0670    9.1201    2.8394 H   0  0  0  0  0  0  0  0  0  0  0  0
  1  2  2  0  0  0  0
  1  3  1  0  0  0  0
  1  4  1  0  0  0  0
  2  5  1  0  0  0  0
  2  6  1  0  0  0  0
  3  7  2  0  0  0  0
  3 20  1  0  0  0  0
  5  8  2  0  0  0  0
  5 21  1  0  0  0  0
  7  8  1  0  0  0  0
  7  9  1  0  0  0  0
  8 22  1  0  0  0  0
  9 10  1  0  0  0  0
  9 23  1  0  0  0  0
 10 11  1  0  0  0  0
 10 12  2  0  0  0  0
 11 13  1  0  0  0  0
 11 24  1  0  0  0  0
 13 14  2  0  0  0  0
 13 15  1  0  0  0  0
 14 16  1  0  0  0  0
 14 25  1  0  0  0  0
 15 17  2  0  0  0  0
 15 26  1  0  0  0  0
 16 18  2  0  0  0  0
 16 27  1  0  0  0  0
 17 18  1  0  0  0  0
 17 28  1  0  0  0  0
 18 19  1  0  0  0  0
M  END