51630581.out.mol
  Mrv0541 03111415023D          

 52 54  0  0  0  0            999 V2000
    0.0000    0.0000    0.0000 C   0  0  0  0  0  0  0  0  0  0  0  0
    1.4960    0.0000    0.0000 C   0  0  1  0  0  0  0  0  0  0  0  0
   -0.6764    1.2272    0.0000 C   0  0  0  0  0  0  0  0  0  0  0  0
   -0.7396   -1.1884   -0.0051 C   0  0  0  0  0  0  0  0  0  0  0  0
    2.0391   -1.0390    0.9538 C   0  0  0  0  0  0  0  0  0  0  0  0
    2.1170   -0.2075   -1.3907 C   0  0  1  0  0  0  0  0  0  0  0  0
   -2.0684    1.2699   -0.0077 C   0  0  0  0  0  0  0  0  0  0  0  0
   -2.1324   -1.1559   -0.0101 C   0  0  0  0  0  0  0  0  0  0  0  0
    2.7908   -0.4539    1.9441 O   0  0  0  0  0  0  0  0  0  0  0  0
    1.9263   -2.2640    0.9491 O   0  0  0  0  0  0  0  0  0  0  0  0
    1.5960   -1.4426   -2.0908 C   0  0  0  0  0  0  0  0  0  0  0  0
    1.8922    1.0258   -2.2412 C   0  0  0  0  0  0  0  0  0  0  0  0
   -2.7951    0.0751   -0.0130 C   0  0  0  0  0  0  0  0  0  0  0  0
    3.3712   -1.2996    2.9556 C   0  0  1  0  0  0  0  0  0  0  0  0
   -4.4937    0.1210   -0.0212 Cl  0  0  0  0  0  0  0  0  0  0  0  0
    4.7762   -0.8247    3.2027 C   0  0  0  0  0  0  0  0  0  0  0  0
    2.5600   -1.1929    4.1673 C   0  0  0  0  0  0  0  0  0  0  0  0
    5.0798    0.5385    3.1882 C   0  0  0  0  0  0  0  0  0  0  0  0
    5.7766   -1.7688    3.4570 C   0  0  0  0  0  0  0  0  0  0  0  0
    1.9156   -1.1081    5.1299 N   0  0  0  0  0  0  0  0  0  0  0  0
    6.3979    0.9411    3.4309 C   0  0  0  0  0  0  0  0  0  0  0  0
    7.0838   -1.3498    3.7045 C   0  0  0  0  0  0  0  0  0  0  0  0
    6.7788    2.2749    3.5320 O   0  0  0  0  0  0  0  0  0  0  0  0
    7.4103    0.0036    3.6900 C   0  0  0  0  0  0  0  0  0  0  0  0
    6.1151    3.1818    2.7087 C   0  0  0  0  0  0  0  0  0  0  0  0
    5.8844    4.4498    3.2637 C   0  0  0  0  0  0  0  0  0  0  0  0
    5.7902    2.9006    1.3765 C   0  0  0  0  0  0  0  0  0  0  0  0
    5.3288    5.4421    2.4595 C   0  0  0  0  0  0  0  0  0  0  0  0
    5.2300    3.9077    0.5926 C   0  0  0  0  0  0  0  0  0  0  0  0
    5.0002    5.1744    1.1298 C   0  0  0  0  0  0  0  0  0  0  0  0
    1.8505    1.0089    0.3738 H   0  0  0  0  0  0  0  0  0  0  0  0
   -0.1066    2.1693    0.0059 H   0  0  0  0  0  0  0  0  0  0  0  0
   -0.2146   -2.1593    0.0007 H   0  0  0  0  0  0  0  0  0  0  0  0
    3.2282   -0.3325   -1.2364 H   0  0  0  0  0  0  0  0  0  0  0  0
   -2.5899    2.2390   -0.0072 H   0  0  0  0  0  0  0  0  0  0  0  0
   -2.7038   -2.0967   -0.0097 H   0  0  0  0  0  0  0  0  0  0  0  0
    0.5083   -1.3359   -2.3217 H   0  0  0  0  0  0  0  0  0  0  0  0
    2.1488   -1.5979   -3.0486 H   0  0  0  0  0  0  0  0  0  0  0  0
    1.7349   -2.3445   -1.4447 H   0  0  0  0  0  0  0  0  0  0  0  0
    2.4019    1.9118   -1.7915 H   0  0  0  0  0  0  0  0  0  0  0  0
    2.3026    0.8616   -3.2665 H   0  0  0  0  0  0  0  0  0  0  0  0
    0.8006    1.2491   -2.3247 H   0  0  0  0  0  0  0  0  0  0  0  0
    3.3717   -2.3784    2.6103 H   0  0  0  0  0  0  0  0  0  0  0  0
    4.2955    1.2827    2.9806 H   0  0  0  0  0  0  0  0  0  0  0  0
    5.5348   -2.8423    3.4653 H   0  0  0  0  0  0  0  0  0  0  0  0
    7.8666   -2.0957    3.9100 H   0  0  0  0  0  0  0  0  0  0  0  0
    8.4358    0.3473    3.8867 H   0  0  0  0  0  0  0  0  0  0  0  0
    6.1523    4.6453    4.3115 H   0  0  0  0  0  0  0  0  0  0  0  0
    5.9755    1.8989    0.9634 H   0  0  0  0  0  0  0  0  0  0  0  0
    5.1465    6.4424    2.8803 H   0  0  0  0  0  0  0  0  0  0  0  0
    4.9740    3.7001   -0.4569 H   0  0  0  0  0  0  0  0  0  0  0  0
    4.5605    5.9645    0.5040 H   0  0  0  0  0  0  0  0  0  0  0  0
  1  2  1  0  0  0  0
  1  3  2  0  0  0  0
  1  4  1  0  0  0  0
  2  5  1  0  0  0  0
  2  6  1  0  0  0  0
  2 31  1  1  0  0  0
  3  7  1  0  0  0  0
  3 32  1  0  0  0  0
  4  8  2  0  0  0  0
  4 33  1  0  0  0  0
  5  9  1  0  0  0  0
  5 10  2  0  0  0  0
  6 11  1  0  0  0  0
  6 12  1  0  0  0  0
  6 34  1  0  0  0  0
  7 13  2  0  0  0  0
  7 35  1  0  0  0  0
  8 13  1  0  0  0  0
  8 36  1  0  0  0  0
  9 14  1  0  0  0  0
 11 37  1  0  0  0  0
 11 38  1  0  0  0  0
 11 39  1  0  0  0  0
 12 40  1  0  0  0  0
 12 41  1  0  0  0  0
 12 42  1  0  0  0  0
 13 15  1  0  0  0  0
 14 16  1  0  0  0  0
 14 17  1  0  0  0  0
 14 43  1  6  0  0  0
 16 18  2  0  0  0  0
 16 19  1  0  0  0  0
 17 20  3  0  0  0  0
 18 21  1  0  0  0  0
 18 44  1  0  0  0  0
 19 22  2  0  0  0  0
 19 45  1  0  0  0  0
 21 23  1  0  0  0  0
 21 24  2  0  0  0  0
 22 24  1  0  0  0  0
 22 46  1  0  0  0  0
 23 25  1  0  0  0  0
 24 47  1  0  0  0  0
 25 26  2  0  0  0  0
 25 27  1  0  0  0  0
 26 28  1  0  0  0  0
 26 48  1  0  0  0  0
 27 29  2  0  0  0  0
 27 49  1  0  0  0  0
 28 30  2  0  0  0  0
 28 50  1  0  0  0  0
 29 30  1  0  0  0  0
 29 51  1  0  0  0  0
 30 52  1  0  0  0  0
M  END