50293.out.mol
  Mrv0541 03111415023D          

 28 29  0  0  0  0            999 V2000
    0.0000    0.0000    0.0000 C   0  0  1  0  0  0  0  0  0  0  0  0
    1.5001    0.0000    0.0000 C   0  0  0  0  0  0  0  0  0  0  0  0
   -0.5609    1.3914    0.0000 C   0  0  0  0  0  0  0  0  0  0  0  0
   -0.5730   -0.9199   -1.1015 C   0  0  1  0  0  0  0  0  0  0  0  0
    2.2399    0.8929   -0.7824 C   0  0  0  0  0  0  0  0  0  0  0  0
    2.1783   -0.9034    0.8298 C   0  0  0  0  0  0  0  0  0  0  0  0
   -0.7313    2.1576   -1.1576 C   0  0  0  0  0  0  0  0  0  0  0  0
   -0.9153    1.9486    1.2385 C   0  0  0  0  0  0  0  0  0  0  0  0
   -0.2380   -2.6082   -0.6632 Cl  0  0  0  0  0  0  0  0  0  0  0  0
   -2.3274   -0.7282   -1.2030 Cl  0  0  0  0  0  0  0  0  0  0  0  0
    0.1249   -0.6283   -2.6951 Cl  0  0  0  0  0  0  0  0  0  0  0  0
    3.6328    0.8835   -0.7468 C   0  0  0  0  0  0  0  0  0  0  0  0
    3.5700   -0.9216    0.8728 C   0  0  0  0  0  0  0  0  0  0  0  0
   -1.2457    3.4513   -1.0868 C   0  0  0  0  0  0  0  0  0  0  0  0
   -1.4256    3.2409    1.3211 C   0  0  0  0  0  0  0  0  0  0  0  0
    4.2964   -0.0257    0.0819 C   0  0  0  0  0  0  0  0  0  0  0  0
   -1.5911    3.9931    0.1539 C   0  0  0  0  0  0  0  0  0  0  0  0
    5.9945   -0.0419    0.1304 Cl  0  0  0  0  0  0  0  0  0  0  0  0
   -2.2156    5.5702    0.2454 Cl  0  0  0  0  0  0  0  0  0  0  0  0
   -0.3367   -0.4798    0.9747 H   0  0  0  0  0  0  0  0  0  0  0  0
    1.7208    1.6142   -1.4336 H   0  0  0  0  0  0  0  0  0  0  0  0
    1.6104   -1.6133    1.4516 H   0  0  0  0  0  0  0  0  0  0  0  0
   -0.4713    1.7454   -2.1454 H   0  0  0  0  0  0  0  0  0  0  0  0
   -0.7889    1.3626    2.1624 H   0  0  0  0  0  0  0  0  0  0  0  0
    4.2032    1.5902   -1.3686 H   0  0  0  0  0  0  0  0  0  0  0  0
    4.0915   -1.6378    1.5257 H   0  0  0  0  0  0  0  0  0  0  0  0
   -1.3784    4.0390   -2.0080 H   0  0  0  0  0  0  0  0  0  0  0  0
   -1.6975    3.6643    2.3000 H   0  0  0  0  0  0  0  0  0  0  0  0
  1  2  1  0  0  0  0
  1  3  1  0  0  0  0
  1  4  1  0  0  0  0
  1 20  1  0  0  0  0
  2  5  2  0  0  0  0
  2  6  1  0  0  0  0
  3  7  2  0  0  0  0
  3  8  1  0  0  0  0
  4  9  1  0  0  0  0
  4 10  1  0  0  0  0
  4 11  1  0  0  0  0
  5 12  1  0  0  0  0
  5 21  1  0  0  0  0
  6 13  2  0  0  0  0
  6 22  1  0  0  0  0
  7 14  1  0  0  0  0
  7 23  1  0  0  0  0
  8 15  2  0  0  0  0
  8 24  1  0  0  0  0
 12 16  2  0  0  0  0
 12 25  1  0  0  0  0
 13 16  1  0  0  0  0
 13 26  1  0  0  0  0
 14 17  2  0  0  0  0
 14 27  1  0  0  0  0
 15 17  1  0  0  0  0
 15 28  1  0  0  0  0
 16 18  1  0  0  0  0
 17 19  1  0  0  0  0
M  END