52645531.out.mol
  Mrv0541 03111415023D          

 46 48  0  0  0  0            999 V2000
    0.0000    0.0000    0.0000 C   0  0  1  0  0  0  0  0  0  0  0  0
    1.5145    0.0000    0.0000 C   0  0  2  0  0  0  0  0  0  0  0  0
    0.7577    1.3155    0.0000 C   0  0  1  0  0  0  0  0  0  0  0  0
   -0.7644   -0.4173   -1.1736 C   0  0  0  0  0  0  0  0  0  0  0  0
    2.3044   -0.4411   -1.1686 C   0  0  0  0  0  0  0  0  0  0  0  0
    0.7432    2.1843   -1.2152 C   0  0  0  0  0  0  0  0  0  0  0  0
    0.7757    2.0980    1.2769 C   0  0  0  0  0  0  0  0  0  0  0  0
   -2.0769   -0.6984   -1.1582 C   0  0  0  0  0  0  0  0  0  0  0  0
    3.5289   -0.9277   -0.7922 O   0  0  0  0  0  0  0  0  0  0  0  0
    2.0291   -0.4208   -2.3716 O   0  0  0  0  0  0  0  0  0  0  0  0
   -3.0578   -0.6077    0.2245 Cl  0  0  0  0  0  0  0  0  0  0  0  0
   -2.8832   -1.1824   -2.5759 Cl  0  0  0  0  0  0  0  0  0  0  0  0
    4.4065   -1.4239   -1.8139 C   0  0  1  0  0  0  0  0  0  0  0  0
    4.2211   -2.8921   -2.0184 C   0  0  0  0  0  0  0  0  0  0  0  0
    3.4915   -3.3558   -3.1169 C   0  0  0  0  0  0  0  0  0  0  0  0
    4.8036   -3.8013   -1.1298 C   0  0  0  0  0  0  0  0  0  0  0  0
    3.3648   -4.7350   -3.3150 C   0  0  0  0  0  0  0  0  0  0  0  0
    4.6654   -5.1736   -1.3375 C   0  0  0  0  0  0  0  0  0  0  0  0
    2.7560   -5.2930   -4.4344 O   0  0  0  0  0  0  0  0  0  0  0  0
    3.9458   -5.6552   -2.4276 C   0  0  0  0  0  0  0  0  0  0  0  0
    1.6594   -4.6159   -4.9622 C   0  0  0  0  0  0  0  0  0  0  0  0
    1.5139   -4.6974   -6.3558 C   0  0  0  0  0  0  0  0  0  0  0  0
    0.6984   -3.9810   -4.1671 C   0  0  0  0  0  0  0  0  0  0  0  0
    0.3831   -4.1378   -6.9456 C   0  0  0  0  0  0  0  0  0  0  0  0
   -0.4213   -3.4215   -4.7802 C   0  0  0  0  0  0  0  0  0  0  0  0
   -0.5809   -3.4998   -6.1637 C   0  0  0  0  0  0  0  0  0  0  0  0
   -0.4704   -0.3024    0.9635 H   0  0  0  0  0  0  0  0  0  0  0  0
    2.0100   -0.2968    0.9520 H   0  0  0  0  0  0  0  0  0  0  0  0
   -0.1962   -0.4957   -2.1228 H   0  0  0  0  0  0  0  0  0  0  0  0
   -0.2118    2.7641   -1.2526 H   0  0  0  0  0  0  0  0  0  0  0  0
    1.5955    2.9067   -1.1794 H   0  0  0  0  0  0  0  0  0  0  0  0
    0.8295    1.5784   -2.1516 H   0  0  0  0  0  0  0  0  0  0  0  0
    0.7571    1.4239    2.1676 H   0  0  0  0  0  0  0  0  0  0  0  0
    1.6985    2.7266    1.3267 H   0  0  0  0  0  0  0  0  0  0  0  0
   -0.1161    2.7701    1.3215 H   0  0  0  0  0  0  0  0  0  0  0  0
    4.2506   -0.8582   -2.7707 H   0  0  0  0  0  0  0  0  0  0  0  0
    5.4270   -1.2053   -1.3934 H   0  0  0  0  0  0  0  0  0  0  0  0
    3.0126   -2.6448   -3.8090 H   0  0  0  0  0  0  0  0  0  0  0  0
    5.3690   -3.4292   -0.2625 H   0  0  0  0  0  0  0  0  0  0  0  0
    5.1260   -5.8833   -0.6341 H   0  0  0  0  0  0  0  0  0  0  0  0
    3.8340   -6.7335   -2.6088 H   0  0  0  0  0  0  0  0  0  0  0  0
    2.2806   -5.2057   -6.9567 H   0  0  0  0  0  0  0  0  0  0  0  0
    0.8338   -3.9224   -3.0776 H   0  0  0  0  0  0  0  0  0  0  0  0
    0.2543   -4.1982   -8.0365 H   0  0  0  0  0  0  0  0  0  0  0  0
   -1.1813   -2.9160   -4.1646 H   0  0  0  0  0  0  0  0  0  0  0  0
   -1.4672   -3.0563   -6.6397 H   0  0  0  0  0  0  0  0  0  0  0  0
  1  2  1  0  0  0  0
  1  3  1  0  0  0  0
  1  4  1  0  0  0  0
  1 27  1  1  0  0  0
  2  3  1  0  0  0  0
  2  5  1  0  0  0  0
  2 28  1  1  0  0  0
  3  6  1  0  0  0  0
  3  7  1  0  0  0  0
  4  8  2  0  0  0  0
  4 29  1  0  0  0  0
  5  9  1  0  0  0  0
  5 10  2  0  0  0  0
  6 30  1  0  0  0  0
  6 31  1  0  0  0  0
  6 32  1  0  0  0  0
  7 33  1  0  0  0  0
  7 34  1  0  0  0  0
  7 35  1  0  0  0  0
  8 11  1  0  0  0  0
  8 12  1  0  0  0  0
  9 13  1  0  0  0  0
 13 14  1  0  0  0  0
 13 36  1  0  0  0  0
 13 37  1  0  0  0  0
 14 15  2  0  0  0  0
 14 16  1  0  0  0  0
 15 17  1  0  0  0  0
 15 38  1  0  0  0  0
 16 18  2  0  0  0  0
 16 39  1  0  0  0  0
 17 19  1  0  0  0  0
 17 20  2  0  0  0  0
 18 20  1  0  0  0  0
 18 40  1  0  0  0  0
 19 21  1  0  0  0  0
 20 41  1  0  0  0  0
 21 22  2  0  0  0  0
 21 23  1  0  0  0  0
 22 24  1  0  0  0  0
 22 42  1  0  0  0  0
 23 25  2  0  0  0  0
 23 43  1  0  0  0  0
 24 26  2  0  0  0  0
 24 44  1  0  0  0  0
 25 26  1  0  0  0  0
 25 45  1  0  0  0  0
 26 46  1  0  0  0  0
M  END