52315078.out.mol
  Mrv0541 03111415023D          

 47 49  0  0  0  0            999 V2000
    0.0000    0.0000    0.0000 C   0  0  1  0  0  0  0  0  0  0  0  0
    1.5127    0.0000    0.0000 C   0  0  1  0  0  0  0  0  0  0  0  0
    0.7600    1.3144    0.0000 C   0  0  1  0  0  0  0  0  0  0  0  0
   -0.7695   -0.4641   -1.1723 C   0  0  0  0  0  0  0  0  0  0  0  0
    2.2341   -0.4604    1.1857 C   0  0  0  0  0  0  0  0  0  0  0  0
    0.8222    2.1423   -1.2444 C   0  0  0  0  0  0  0  0  0  0  0  0
    0.6840    2.1404    1.2454 C   0  0  0  0  0  0  0  0  0  0  0  0
   -0.0095   -0.6702   -2.3001 O   0  0  0  0  0  0  0  0  0  0  0  0
   -1.9792   -0.6851   -1.2311 O   0  0  0  0  0  0  0  0  0  0  0  0
    2.7975   -1.6742    1.2982 C   0  0  0  0  0  0  0  0  0  0  0  0
   -0.6650   -1.1699   -3.4824 C   0  0  1  0  0  0  0  0  0  0  0  0
    2.7309   -2.8597    0.0908 Cl  0  0  0  0  0  0  0  0  0  0  0  0
    3.6431   -2.1164    2.7054 Cl  0  0  0  0  0  0  0  0  0  0  0  0
   -0.2011   -0.3433   -4.6497 C   0  0  0  0  0  0  0  0  0  0  0  0
   -0.2919   -2.5738   -3.6481 C   0  0  0  0  0  0  0  0  0  0  0  0
    1.1435    0.0160   -4.7758 C   0  0  0  0  0  0  0  0  0  0  0  0
   -1.1329    0.0544   -5.6132 C   0  0  0  0  0  0  0  0  0  0  0  0
    0.0045   -3.6890   -3.7797 N   0  0  0  0  0  0  0  0  0  0  0  0
    1.5407    0.7736   -5.8826 C   0  0  0  0  0  0  0  0  0  0  0  0
   -0.7198    0.8085   -6.7122 C   0  0  0  0  0  0  0  0  0  0  0  0
    2.8619    1.1050   -6.1576 O   0  0  0  0  0  0  0  0  0  0  0  0
    0.6136    1.1784   -6.8580 C   0  0  0  0  0  0  0  0  0  0  0  0
    3.7285    1.2254   -5.0737 C   0  0  0  0  0  0  0  0  0  0  0  0
    5.0255    0.7283   -5.2739 C   0  0  0  0  0  0  0  0  0  0  0  0
    3.3826    1.9007   -3.8978 C   0  0  0  0  0  0  0  0  0  0  0  0
    5.9807    0.9266   -4.2798 C   0  0  0  0  0  0  0  0  0  0  0  0
    4.3536    2.0824   -2.9143 C   0  0  0  0  0  0  0  0  0  0  0  0
    5.6483    1.5994   -3.1029 C   0  0  0  0  0  0  0  0  0  0  0  0
   -0.5305   -0.2833    0.9359 H   0  0  0  0  0  0  0  0  0  0  0  0
    2.0096   -0.2875   -0.9556 H   0  0  0  0  0  0  0  0  0  0  0  0
    2.3192    0.2636    2.0162 H   0  0  0  0  0  0  0  0  0  0  0  0
   -0.0580    2.8288   -1.2978 H   0  0  0  0  0  0  0  0  0  0  0  0
    1.7557    2.7582   -1.2408 H   0  0  0  0  0  0  0  0  0  0  0  0
    0.8295    1.4972   -2.1594 H   0  0  0  0  0  0  0  0  0  0  0  0
    0.4833    1.5092    2.1453 H   0  0  0  0  0  0  0  0  0  0  0  0
    1.6480    2.6849    1.3992 H   0  0  0  0  0  0  0  0  0  0  0  0
   -0.1385    2.8922    1.1549 H   0  0  0  0  0  0  0  0  0  0  0  0
   -1.7900   -1.1016   -3.3687 H   0  0  0  0  0  0  0  0  0  0  0  0
    1.8739   -0.2897   -4.0107 H   0  0  0  0  0  0  0  0  0  0  0  0
   -2.1916   -0.2270   -5.5093 H   0  0  0  0  0  0  0  0  0  0  0  0
   -1.4557    1.1162   -7.4707 H   0  0  0  0  0  0  0  0  0  0  0  0
    0.9535    1.7680   -7.7215 H   0  0  0  0  0  0  0  0  0  0  0  0
    5.2720    0.2040   -6.2079 H   0  0  0  0  0  0  0  0  0  0  0  0
    2.3585    2.2758   -3.7546 H   0  0  0  0  0  0  0  0  0  0  0  0
    7.0027    0.5455   -4.4253 H   0  0  0  0  0  0  0  0  0  0  0  0
    4.0921    2.6124   -1.9861 H   0  0  0  0  0  0  0  0  0  0  0  0
    6.4087    1.7472   -2.3223 H   0  0  0  0  0  0  0  0  0  0  0  0
  1  2  1  0  0  0  0
  1  3  1  0  0  0  0
  1  4  1  0  0  0  0
  1 29  1  1  0  0  0
  2  3  1  0  0  0  0
  2  5  1  0  0  0  0
  2 30  1  6  0  0  0
  3  6  1  0  0  0  0
  3  7  1  0  0  0  0
  4  8  1  0  0  0  0
  4  9  2  0  0  0  0
  5 10  2  0  0  0  0
  5 31  1  0  0  0  0
  6 32  1  0  0  0  0
  6 33  1  0  0  0  0
  6 34  1  0  0  0  0
  7 35  1  0  0  0  0
  7 36  1  0  0  0  0
  7 37  1  0  0  0  0
  8 11  1  0  0  0  0
 10 12  1  0  0  0  0
 10 13  1  0  0  0  0
 11 14  1  0  0  0  0
 11 15  1  0  0  0  0
 11 38  1  1  0  0  0
 14 16  2  0  0  0  0
 14 17  1  0  0  0  0
 15 18  3  0  0  0  0
 16 19  1  0  0  0  0
 16 39  1  0  0  0  0
 17 20  2  0  0  0  0
 17 40  1  0  0  0  0
 19 21  1  0  0  0  0
 19 22  2  0  0  0  0
 20 22  1  0  0  0  0
 20 41  1  0  0  0  0
 21 23  1  0  0  0  0
 22 42  1  0  0  0  0
 23 24  2  0  0  0  0
 23 25  1  0  0  0  0
 24 26  1  0  0  0  0
 24 43  1  0  0  0  0
 25 27  2  0  0  0  0
 25 44  1  0  0  0  0
 26 28  2  0  0  0  0
 26 45  1  0  0  0  0
 27 28  1  0  0  0  0
 27 46  1  0  0  0  0
 28 47  1  0  0  0  0
M  END