p, p' - DDT
  SciTegic01131010503D

 19 20  0  0  0  0            999 V2000
    3.0757   -0.2822    0.2969 C   0  0  0  0  0  0  0  0  0  1  0  0
    3.9171   -0.7902    1.2836 C   0  0  0  0  0  0  0  0  0  2  0  0
    5.1898   -0.2651    1.4745 C   0  0  0  0  0  0  0  0  0  3  0  0
    5.6401    0.7744    0.6704 C   0  0  0  0  0  0  0  0  0  4  0  0
    4.8160    1.2824   -0.3255 C   0  0  0  0  0  0  0  0  0  5  0  0
    7.2214    1.4300    0.9049 Cl  0  0  0  0  0  0  0  0  0  6  0  0
    3.5444    0.7528   -0.5115 C   0  0  0  0  0  0  0  0  0  7  0  0
    1.6536   -0.8786    0.0520 C   0  0  0  0  0  0  0  0  0  8  0  0
    0.5364    0.2042    0.2086 C   0  0  0  0  0  0  0  0  0  9  0  0
    0.8163    1.4662    0.7284 C   0  0  0  0  0  0  0  0  0 10  0  0
   -0.1844    2.4207    0.8685 C   0  0  0  0  0  0  0  0  0 11  0  0
   -1.4859    2.1215    0.4880 C   0  0  0  0  0  0  0  0  0 12  0  0
   -1.7802    0.8669   -0.0302 C   0  0  0  0  0  0  0  0  0 13  0  0
   -2.7339    3.3041    0.6590 Cl  0  0  0  0  0  0  0  0  0 14  0  0
   -0.7736   -0.0817   -0.1660 C   0  0  0  0  0  0  0  0  0 15  0  0
    1.3390   -2.1872    0.9080 C   0  0  0  0  0  0  0  0  0 16  0  0
    1.2907   -1.7920    2.6352 Cl  0  0  0  0  0  0  0  0  0 17  0  0
    2.5724   -3.4279    0.6112 Cl  0  0  0  0  0  0  0  0  0 18  0  0
   -0.2130   -2.9204    0.4663 Cl  0  0  0  0  0  0  0  0  0 19  0  0
 16 19  1  0
 16 18  1  0
 16 17  1  0
  8 16  1  0
 15 13  4  0
  9 15  4  0
 12 14  1  0
 12 13  4  0
 11 12  4  0
 10 11  4  0
  9 10  4  0
  8  9  1  0
  1  8  1  0
  7  5  4  0
  1  7  4  0
  4  6  1  0
  4  5  4  0
  3  4  4  0
  2  3  4  0
  1  2  4  0
M  END