benzo a pyrene
  SciTegic01131010503D

 20 24  0  0  0  0            999 V2000
   -3.4860   -0.7101    1.7973 C   0  0  0  0  0  0  0  0  0  1  0  0
   -3.9578   -0.2258    3.0119 C   0  0  0  0  0  0  0  0  0  2  0  0
   -3.4770    0.9783    3.5143 C   0  0  0  0  0  0  0  0  0  3  0  0
   -2.5246    1.6978    2.8023 C   0  0  0  0  0  0  0  0  0  4  0  0
   -2.0528    1.2134    1.5878 C   0  0  0  0  0  0  0  0  0  5  0  0
   -3.9489    1.4626    4.7287 C   0  0  0  0  0  0  0  0  0  6  0  0
   -4.9016    0.7428    5.4409 C   0  0  0  0  0  0  0  0  0  7  0  0
   -5.3825   -0.4611    4.9388 C   0  0  0  0  0  0  0  0  0  8  0  0
   -4.9107   -0.9454    3.7244 C   0  0  0  0  0  0  0  0  0  9  0  0
   -5.3916   -2.1491    3.2224 C   0  0  0  0  0  0  0  0  0 10  0  0
   -4.9198   -2.6335    2.0079 C   0  0  0  0  0  0  0  0  0 11  0  0
   -3.9673   -1.9142    1.2956 C   0  0  0  0  0  0  0  0  0 12  0  0
   -3.4962   -2.3994    0.0816 C   0  0  0  0  0  0  0  0  0 13  0  0
   -2.5438   -1.6802   -0.6307 C   0  0  0  0  0  0  0  0  0 14  0  0
   -2.0619   -0.4756   -0.1294 C   0  0  0  0  0  0  0  0  0 15  0  0
   -1.1092    0.2422   -0.8435 C   0  0  0  0  0  0  0  0  0 16  0  0
   -0.6386   -0.2438   -2.0580 C   0  0  0  0  0  0  0  0  0 17  0  0
   -1.1206   -1.4480   -2.5586 C   0  0  0  0  0  0  0  0  0 18  0  0
   -2.0732   -2.1662   -1.8450 C   0  0  0  0  0  0  0  0  0 19  0  0
   -2.5332    0.0095    1.0850 C   0  0  0  0  0  0  0  0  0 20  0  0
 20 15  4  0
 20  5  4  0
  1 20  4  0
 19 18  4  0
 14 19  4  0
 17 18  4  0
 16 17  4  0
 15 16  4  0
 14 15  4  0
 13 14  4  0
 12 13  4  0
 12 11  4  0
  1 12  4  0
 10 11  4  0
  9 10  4  0
  9  8  4  0
  2  9  4  0
  7  8  4  0
  6  7  4  0
  3  6  4  0
  4  5  4  0
  3  4  4  0
  2  3  4  0
  1  2  4  0
M  END