dibenz(a,h)anthracene
  SciTegic01131010503D

 22 26  0  0  0  0            999 V2000
    0.0323   -0.4609    0.1092 C   0  0  0  0  0  0  0  0  0  1  0  0
    0.9494   -0.1249   -0.8808 C   0  0  0  0  0  0  0  0  0  2  0  0
    2.3124   -0.2351   -0.6310 C   0  0  0  0  0  0  0  0  0  3  0  0
    2.7575   -0.6813    0.6089 C   0  0  0  0  0  0  0  0  0  4  0  0
    1.8404   -1.0170    1.5980 C   0  0  0  0  0  0  0  0  0  5  0  0
    4.1203   -0.7919    0.8598 C   0  0  0  0  0  0  0  0  0  6  0  0
    5.0384   -0.4564   -0.1287 C   0  0  0  0  0  0  0  0  0  7  0  0
    4.5937   -0.0103   -1.3682 C   0  0  0  0  0  0  0  0  0  8  0  0
    3.2309    0.1003   -1.6194 C   0  0  0  0  0  0  0  0  0  9  0  0
    0.5027    0.3209   -2.1193 C   0  0  0  0  0  0  0  0  0 10  0  0
   -0.8601    0.4306   -2.3678 C   0  0  0  0  0  0  0  0  0 11  0  0
   -1.7772    0.0946   -1.3778 C   0  0  0  0  0  0  0  0  0 12  0  0
   -3.1403    0.2048   -1.6276 C   0  0  0  0  0  0  0  0  0 13  0  0
   -3.5854    0.6510   -2.8675 C   0  0  0  0  0  0  0  0  0 14  0  0
   -2.6682    0.9867   -3.8566 C   0  0  0  0  0  0  0  0  0 15  0  0
   -4.9481    0.7616   -3.1185 C   0  0  0  0  0  0  0  0  0 16  0  0
   -5.8662    0.4261   -2.1299 C   0  0  0  0  0  0  0  0  0 17  0  0
   -5.4216   -0.0200   -0.8904 C   0  0  0  0  0  0  0  0  0 18  0  0
   -4.0588   -0.1306   -0.6392 C   0  0  0  0  0  0  0  0  0 19  0  0
   -1.3053    0.8765   -3.6067 C   0  0  0  0  0  0  0  0  0 20  0  0
    0.4775   -0.9068    1.3481 C   0  0  0  0  0  0  0  0  0 21  0  0
   -1.3306   -0.3512   -0.1393 C   0  0  0  0  0  0  0  0  0 22  0  0
 22 12  4  0
  1 22  4  0
 21  5  4  0
  1 21  4  0
 20 15  4  0
 11 20  4  0
 19 18  4  0
 13 19  4  0
 17 18  4  0
 16 17  4  0
 14 16  4  0
 14 15  4  0
 13 14  4  0
 12 13  4  0
 11 12  4  0
 10 11  4  0
  2 10  4  0
  9  8  4  0
  3  9  4  0
  7  8  4  0
  6  7  4  0
  4  6  4  0
  4  5  4  0
  3  4  4  0
  2  3  4  0
  1  2  4  0
M  END