benzamide
  SciTegic01131010503D

  9  9  0  0  0  0            999 V2000
    1.3404   -1.9411    0.0614 O   0  0  0  0  0  0  0  0  0  1  0  0
    1.6789   -0.7746    0.2899 C   0  0  0  0  0  0  0  0  0  2  0  0
    3.0049   -0.4817    0.6125 N   0  0  0  0  0  0  0  0  0  3  0  0
    0.6910    0.2979    0.2224 C   0  0  0  0  0  0  0  0  0  4  0  0
    1.0719    1.6100    0.4794 C   0  0  0  0  0  0  0  0  0  5  0  0
    0.1310    2.6315    0.4151 C   0  0  0  0  0  0  0  0  0  6  0  0
   -1.1901    2.3404    0.0937 C   0  0  0  0  0  0  0  0  0  7  0  0
   -1.5705    1.0279   -0.1633 C   0  0  0  0  0  0  0  0  0  8  0  0
   -0.6298    0.0063   -0.0990 C   0  0  0  0  0  0  0  0  0  9  0  0
  9  8  4  0
  4  9  4  0
  7  8  4  0
  6  7  4  0
  5  6  4  0
  4  5  4  0
  2  4  1  0
  2  3  1  0
  1  2  2  0
M  END