methane, tetrachloro-
  SciTegic01131010503D

  5  4  0  0  0  0            999 V2000
    0.0011   -0.0005    0.0000 C   0  0  0  0  0  0  0  0  0  1  0  0
    1.7681   -0.0021   -0.0005 Cl  0  0  0  0  0  0  0  0  0  2  0  0
   -0.5864    1.6660   -0.0006 Cl  0  0  0  0  0  0  0  0  0  3  0  0
   -0.5882   -0.8323    1.4433 Cl  0  0  0  0  0  0  0  0  0  4  0  0
   -0.5890   -0.8336   -1.4422 Cl  0  0  0  0  0  0  0  0  0  5  0  0
  1  5  1  0
  1  4  1  0
  1  3  1  0
  1  2  1  0
M  END