chlordane
  SciTegic01131010503D

 18 20  0  0  0  0            999 V2000
    1.8325    3.8490   -1.0475 Cl  0  0  0  0  0  0  0  0  0  1  0  0
    0.2241    4.3838   -0.5471 C   0  0  0  0  0  0  0  0  0  2  0  0
   -0.1652    3.4885    0.7205 C   0  0  0  0  0  0  0  0  0  3  0  0
   -1.0325    2.4682    0.0172 C   0  0  0  0  0  0  0  0  0  4  0  0
   -0.4882    2.3629   -1.3597 C   0  0  0  0  0  0  0  0  0  5  0  0
   -0.7433    3.8483   -1.6876 C   0  0  0  0  0  0  0  0  0  6  0  0
   -2.3893    4.3653   -1.3293 Cl  0  0  0  0  0  0  0  0  0  7  0  0
   -1.1285    1.0062   -1.7926 C   0  0  1  0  0  0  0  0  0  8  0  0
   -1.2541    0.7522   -3.5346 Cl  0  0  0  0  0  0  0  0  0  9  0  0
   -0.2117    0.0103   -1.0919 C   0  0  0  0  0  0  0  0  0 10  0  0
   -0.3955    0.0872    0.2204 C   0  0  0  0  0  0  0  0  0 11  0  0
    0.4119   -0.8539    1.4213 Cl  0  0  0  0  0  0  0  0  0 12  0  0
   -1.4632    1.0720    0.4585 C   0  0  1  0  0  0  0  0  0 13  0  0
   -2.2781    0.9795    2.0213 Cl  0  0  0  0  0  0  0  0  0 14  0  0
   -2.3450    0.8111   -0.8436 C   0  0  0  0  0  0  0  0  0 15  0  0
   -3.6916    1.9212   -1.0642 Cl  0  0  0  0  0  0  0  0  0 16  0  0
   -2.9628   -0.8416   -0.9037 Cl  0  0  0  0  0  0  0  0  0 17  0  0
    0.9067   -1.0403   -1.8823 Cl  0  0  0  0  0  0  0  0  0 18  0  0
 10 18  1  0
 15 17  1  0
 15 16  1  0
 15  8  1  0
 13 15  1  0
 13 14  1  0
 13  4  1  0
 11 13  1  0
 11 12  1  0
 10 11  2  0
  8 10  1  0
  8  9  1  0
  5  8  1  0
  6  7  1  0
  6  2  1  0
  5  6  1  0
  4  5  1  0
  3  4  1  0
  2  3  1  0
  1  2  1  0
M  END