gamma-hexachlorocyclohexane
  SciTegic01131010503D

 12 12  0  0  0  0            999 V2000
    0.2928    1.0383   -1.0332 C   0  0  0  0  0  0  0  0  0  1  0  0
    0.9366    2.3646   -1.0984 C   0  0  0  0  0  0  0  0  0  2  0  0
    1.5458    2.6538    0.3945 C   0  0  0  0  0  0  0  0  0  3  0  0
    0.6940    2.0887    1.6810 C   0  0  0  0  0  0  0  0  0  4  0  0
   -0.7461    2.1878    1.3033 C   0  0  0  0  0  0  0  0  0  5  0  0
   -1.0705    3.9014    0.9781 Cl  0  0  0  0  0  0  0  0  0  6  0  0
    0.9960    0.3904    2.0954 Cl  0  0  0  0  0  0  0  0  0  7  0  0
    1.8127    4.4029    0.4375 Cl  0  0  0  0  0  0  0  0  0  8  0  0
   -0.3180    3.4945   -1.6432 Cl  0  0  0  0  0  0  0  0  0  9  0  0
   -0.9540    1.1838    0.0194 C   0  0  0  0  0  0  0  0  0 10  0  0
   -1.3470   -0.4794    0.4797 Cl  0  0  0  0  0  0  0  0  0 11  0  0
    1.5647   -0.1034   -0.5571 Cl  0  0  0  0  0  0  0  0  0 12  0  0
  1 12  1  0
 10 11  1  0
 10  5  1  0
  1 10  1  0
  2  9  1  0
  3  8  1  0
  4  7  1  0
  5  6  1  0
  4  5  1  0
  3  4  1  0
  2  3  1  0
  1  2  1  0
M  END