benzenamine
  SciTegic01131010503D

  7  7  0  0  0  0            999 V2000
    1.9867   -0.4183    0.6963 N   0  0  0  0  0  0  0  0  0  1  0  0
    0.9117    0.4369    0.4487 C   0  0  0  0  0  0  0  0  0  2  0  0
    1.0126    1.7883    0.7601 C   0  0  0  0  0  0  0  0  0  3  0  0
   -0.0582    2.6402    0.5135 C   0  0  0  0  0  0  0  0  0  4  0  0
   -1.2297    2.1406   -0.0444 C   0  0  0  0  0  0  0  0  0  5  0  0
   -1.3306    0.7893   -0.3558 C   0  0  0  0  0  0  0  0  0  6  0  0
   -0.2598   -0.0627   -0.1092 C   0  0  0  0  0  0  0  0  0  7  0  0
  7  6  4  0
  2  7  4  0
  5  6  4  0
  4  5  4  0
  3  4  4  0
  2  3  4  0
  1  2  1  0
M  END