ethanethioamide
  SciTegic01131010503D

  4  3  0  0  0  0            999 V2000
    1.4310   -0.0131    0.0005 N   0  0  0  0  0  0  0  0  0  1  0  0
    0.0345   -0.0134    0.0001 C   0  0  0  0  0  0  0  0  0  2  0  0
   -0.7483    1.3414    0.0002 S   0  0  0  0  0  0  0  0  0  3  0  0
   -0.7159   -1.3140   -0.0006 C   0  0  0  0  0  0  0  0  0  4  0  0
  2  4  1  0
  2  3  2  0
  1  2  1  0
M  END