methanamine, n-methyl-n-nitroso-
  SciTegic01131010503D

  5  4  0  0  0  0            999 V2000
   -0.2815    0.2714   -0.1749 O   0  0  0  0  0  0  0  0  0  1  0  0
    0.7045   -0.3625   -0.0844 N   0  0  0  0  0  0  0  0  0  2  0  0
    1.6852    0.0423    0.7182 N   0  0  0  0  0  0  0  0  0  3  0  0
    1.5409    1.2535    1.4747 C   0  0  0  0  0  0  0  0  0  4  0  0
    2.8878   -0.7324    0.8275 C   0  0  0  0  0  0  0  0  0  5  0  0
  3  5  1  0
  3  4  1  0
  2  3  1  0
  1  2  2  0
M  END