ethanol
  SciTegic01131010503D

  3  2  0  0  0  0            999 V2000
   -0.3525    0.0000   -0.1581 O   0  0  0  0  0  0  0  0  0  1  0  0
    1.0774    0.0013   -0.1728 C   0  0  0  0  0  0  0  0  0  2  0  0
    1.6064   -0.0010    1.2734 C   0  0  0  0  0  0  0  0  0  3  0  0
  2  3  1  0
  1  2  1  0
M  END