formic acid
  SciTegic01131010503D

  3  2  0  0  0  0            999 V2000
   -0.2295    0.0003   -0.0942 O   0  0  0  0  0  0  0  0  0  1  0  0
    1.0066   -0.0013   -0.1157 C   0  0  0  0  0  0  0  0  0  2  0  0
    1.7232    0.0004    1.0771 O   0  0  0  0  0  0  0  0  0  3  0  0
  2  3  1  0
  1  2  2  0
M  END