benzoic acid
  SciTegic01131010503D

  9  9  0  0  0  0            999 V2000
    1.3422   -1.9404    0.0596 O   0  0  0  0  0  0  0  0  0  1  0  0
    1.6803   -0.7741    0.2898 C   0  0  0  0  0  0  0  0  0  2  0  0
    3.0011   -0.4824    0.6131 O   0  0  0  0  0  0  0  0  0  3  0  0
    0.6924    0.2985    0.2221 C   0  0  0  0  0  0  0  0  0  4  0  0
    1.0729    1.6103    0.4810 C   0  0  0  0  0  0  0  0  0  5  0  0
    0.1320    2.6318    0.4165 C   0  0  0  0  0  0  0  0  0  6  0  0
   -1.1887    2.3409    0.0932 C   0  0  0  0  0  0  0  0  0  7  0  0
   -1.5688    1.0286   -0.1656 C   0  0  0  0  0  0  0  0  0  8  0  0
   -0.6280    0.0071   -0.1012 C   0  0  0  0  0  0  0  0  0  9  0  0
  9  8  4  0
  4  9  4  0
  7  8  4  0
  6  7  4  0
  5  6  4  0
  4  5  4  0
  2  4  1  0
  2  3  1  0
  1  2  2  0
M  END