2-propanone
  SciTegic01131010503D

  4  3  0  0  0  0            999 V2000
   -0.3021    0.0005    0.0006 O   0  0  0  0  0  0  0  0  0  1  0  0
    0.9342   -0.0002   -0.0007 C   0  0  0  0  0  0  0  0  0  2  0  0
    1.6863   -0.0021    1.2989 C   0  0  0  0  0  0  0  0  0  3  0  0
    1.6836    0.0010   -1.3018 C   0  0  0  0  0  0  0  0  0  4  0  0
  2  4  1  0
  2  3  1  0
  1  2  2  0
M  END