methane, trichloro-
  SciTegic01131010503D

  4  3  0  0  0  0            999 V2000
   -0.0635   -0.0898   -0.1549 C   0  0  0  0  0  0  0  0  0  1  0  0
    1.7034   -0.0917   -0.1583 Cl  0  0  0  0  0  0  0  0  0  2  0  0
   -0.6516    1.5764   -0.1564 Cl  0  0  0  0  0  0  0  0  0  3  0  0
   -0.6515   -0.9215    1.2890 Cl  0  0  0  0  0  0  0  0  0  4  0  0
  1  4  1  0
  1  3  1  0
  1  2  1  0
M  END