ethane, hexachloro-
  SciTegic01131010503D

  8  7  0  0  0  0            999 V2000
   -0.2685    0.0003    0.0001 C   0  0  0  0  0  0  0  0  0  1  0  0
    1.2691    0.0002   -0.0011 C   0  0  0  0  0  0  0  0  0  2  0  0
    1.8576    0.4307    1.6078 Cl  0  0  0  0  0  0  0  0  0  3  0  0
    1.8554    1.1788   -1.1791 Cl  0  0  0  0  0  0  0  0  0  4  0  0
    1.8560   -1.6088   -0.4336 Cl  0  0  0  0  0  0  0  0  0  5  0  0
   -0.8553    1.6093    0.4325 Cl  0  0  0  0  0  0  0  0  0  6  0  0
   -0.8547   -1.1783    1.1780 Cl  0  0  0  0  0  0  0  0  0  7  0  0
   -0.8569   -0.4301   -1.6089 Cl  0  0  0  0  0  0  0  0  0  8  0  0
  1  8  1  0
  1  7  1  0
  1  6  1  0
  2  5  1  0
  2  4  1  0
  2  3  1  0
  1  2  1  0
M  END