1-propanol
  SciTegic01131010503D

  4  3  0  0  0  0            999 V2000
   -0.2813    0.1951   -0.5212 O   0  0  0  0  0  0  0  0  0  1  0  0
    1.0390   -0.2877   -0.2598 C   0  0  0  0  0  0  0  0  0  2  0  0
    1.5336    0.2739    1.0858 C   0  0  0  0  0  0  0  0  0  3  0  0
    0.5865   -0.1816    2.2112 C   0  0  0  0  0  0  0  0  0  4  0  0
  3  4  1  0
  2  3  1  0
  1  2  1  0
M  END