1-butanol
  SciTegic01131010503D

  5  4  0  0  0  0            999 V2000
    0.1017   -0.0816   -0.9798 O   0  0  0  0  0  0  0  0  0  1  0  0
    1.3626    0.2541   -0.3911 C   0  0  0  0  0  0  0  0  0  2  0  0
    1.5235   -0.3422    1.0411 C   0  0  0  0  0  0  0  0  0  3  0  0
    0.5339    0.2736    2.0785 C   0  0  0  0  0  0  0  0  0  4  0  0
   -0.9360   -0.1008    1.7892 C   0  0  0  0  0  0  0  0  0  5  0  0
  4  5  1  0
  3  4  1  0
  2  3  1  0
  1  2  1  0
M  END