benzene
  SciTegic01131010503D

  6  6  0  0  0  0            999 V2000
    0.8993    0.7914    1.1262 C   0  0  0  0  0  0  0  0  0  1  0  0
    0.7372    2.1722    1.1057 C   0  0  0  0  0  0  0  0  0  2  0  0
   -0.2395    2.7456    0.2990 C   0  0  0  0  0  0  0  0  0  3  0  0
   -1.0541    1.9381   -0.4871 C   0  0  0  0  0  0  0  0  0  4  0  0
   -0.8919    0.5573   -0.4666 C   0  0  0  0  0  0  0  0  0  5  0  0
    0.0848   -0.0161    0.3400 C   0  0  0  0  0  0  0  0  0  6  0  0
  6  5  4  0
  1  6  4  0
  4  5  4  0
  3  4  4  0
  2  3  4  0
  1  2  4  0
M  END