methane, bromochloro-
  SciTegic01131010503D

  3  2  0  0  0  0            999 V2000
   -0.7047   -0.0022   -0.2631 Br  0  0  0  0  0  0  0  0  0  1  0  0
    1.2350    0.0003   -0.2319 C   0  0  0  0  0  0  0  0  0  2  0  0
    1.7980    0.0019    1.4430 Cl  0  0  0  0  0  0  0  0  0  3  0  0
  2  3  1  0
  1  2  1  0
M  END