propanoic acid, 2,2-dichloro-
  SciTegic01131010503D

  7  6  0  0  0  0            999 V2000
   -0.4094   -0.0380    0.2839 O   0  0  0  0  0  0  0  0  0  1  0  0
    0.8264   -0.0147    0.2948 C   0  0  0  0  0  0  0  0  0  2  0  0
    1.5111    0.0421    1.5045 O   0  0  0  0  0  0  0  0  0  3  0  0
    1.5880   -0.0477   -0.9974 C   0  0  0  0  0  0  0  0  0  4  0  0
    1.9017    1.6202   -1.4882 Cl  0  0  0  0  0  0  0  0  0  5  0  0
    0.6236   -0.8223   -2.2587 Cl  0  0  0  0  0  0  0  0  0  6  0  0
    2.9478   -0.7411   -0.7947 C   0  0  0  0  0  0  0  0  0  7  0  0
  4  7  1  0
  4  6  1  0
  4  5  1  0
  2  4  1  0
  2  3  1  0
  1  2  2  0
M  END