2-butanone
  SciTegic01131010503D

  5  4  0  0  0  0            999 V2000
   -0.3335   -0.6321   -0.2786 O   0  0  0  0  0  0  0  0  0  1  0  0
    0.7370   -0.0511   -0.0675 C   0  0  0  0  0  0  0  0  0  2  0  0
    1.1249    0.3103    1.3471 C   0  0  0  0  0  0  0  0  0  3  0  0
    2.4926    1.0253    1.3732 C   0  0  0  0  0  0  0  0  0  4  0  0
    1.6408    0.2892   -1.2228 C   0  0  0  0  0  0  0  0  0  5  0  0
  2  5  1  0
  3  4  1  0
  2  3  1  0
  1  2  2  0
M  END