ethene, trichloro-
  SciTegic01131010503D

  5  4  0  0  0  0            999 V2000
   -0.0840    0.1994   -0.0045 C   0  0  0  0  0  0  0  0  0  1  0  0
    1.1791    0.4992    0.2897 C   0  0  0  0  0  0  0  0  0  2  0  0
    2.2134   -0.7033    0.9760 Cl  0  0  0  0  0  0  0  0  0  3  0  0
   -1.1203    1.4004   -0.6909 Cl  0  0  0  0  0  0  0  0  0  4  0  0
   -0.6871   -1.3912    0.3001 Cl  0  0  0  0  0  0  0  0  0  5  0  0
  1  5  1  0
  1  4  1  0
  2  3  1  0
  1  2  2  0
M  END