acetic acid, chloro-
  SciTegic01131010503D

  5  4  0  0  0  0            999 V2000
   -0.2777   -0.7300    0.3731 O   0  0  0  0  0  0  0  0  0  1  0  0
    0.7370   -0.0796    0.0985 C   0  0  0  0  0  0  0  0  0  2  0  0
    1.5705    0.3729    1.1165 O   0  0  0  0  0  0  0  0  0  3  0  0
    1.0707    0.2225   -1.3334 C   0  0  0  0  0  0  0  0  0  4  0  0
    2.5668    1.1595   -1.4027 Cl  0  0  0  0  0  0  0  0  0  5  0  0
  4  5  1  0
  2  4  1  0
  2  3  1  0
  1  2  2  0
M  END