1,2-benzenedicarboxylic acid, dibutyl ester
  SciTegic01131010503D

 20 20  0  0  0  0            999 V2000
    0.9350   -0.0683    1.6914 O   0  0  0  0  0  0  0  0  0  1  0  0
    1.2536   -0.0836    0.5003 C   0  0  0  0  0  0  0  0  0  2  0  0
    2.2935   -0.9214    0.0638 O   0  0  0  0  0  0  0  0  0  3  0  0
    2.8327   -1.7252    1.1240 C   0  0  0  0  0  0  0  0  0  4  0  0
    1.9022   -2.9280    1.4068 C   0  0  0  0  0  0  0  0  0  5  0  0
    1.7719   -3.7907    0.1294 C   0  0  0  0  0  0  0  0  0  6  0  0
    3.1604   -4.3069   -0.3036 C   0  0  0  0  0  0  0  0  0  7  0  0
    0.6017    0.7792   -0.5184 C   0  0  0  0  0  0  0  0  0  8  0  0
   -0.3919    1.7392   -0.2670 C   0  0  0  0  0  0  0  0  0  9  0  0
   -0.9015    2.4778   -1.3307 C   0  0  0  0  0  0  0  0  0 10  0  0
   -0.4524    2.2829   -2.6295 C   0  0  0  0  0  0  0  0  0 11  0  0
    0.5285    1.3354   -2.8776 C   0  0  0  0  0  0  0  0  0 12  0  0
   -0.9692    2.0678    1.0615 C   0  0  0  0  0  0  0  0  0 13  0  0
   -0.6579    1.4785    2.0985 O   0  0  0  0  0  0  0  0  0 14  0  0
   -1.8889    3.1098    1.1166 O   0  0  0  0  0  0  0  0  0 15  0  0
   -2.3567    3.3182    2.4464 C   0  0  0  0  0  0  0  0  0 16  0  0
   -3.2332    4.5825    2.4486 C   0  0  0  0  0  0  0  0  0 17  0  0
   -4.3774    4.4133    1.4322 C   0  0  0  0  0  0  0  0  0 18  0  0
   -5.2272    5.6966    1.3972 C   0  0  0  0  0  0  0  0  0 19  0  0
    1.0471    0.5953   -1.8239 C   0  0  0  0  0  0  0  0  0 20  0  0
 20 12  4  0
  8 20  4  0
 18 19  1  0
 17 18  1  0
 16 17  1  0
 15 16  1  0
 13 15  1  0
 13 14  2  0
  9 13  1  0
 11 12  4  0
 10 11  4  0
  9 10  4  0
  8  9  4  0
  2  8  1  0
  6  7  1  0
  5  6  1  0
  4  5  1  0
  3  4  1  0
  2  3  1  0
  1  2  2  0
M  END