phenanthrene
  SciTegic01131010503D

 14 16  0  0  0  0            999 V2000
    0.6355    1.2784   -0.5072 C   0  0  0  0  0  0  0  0  0  1  0  0
    0.6486    0.2476    0.4265 C   0  0  0  0  0  0  0  0  0  2  0  0
    1.7716   -0.5623    0.5511 C   0  0  0  0  0  0  0  0  0  3  0  0
    2.8809   -0.3409   -0.2582 C   0  0  0  0  0  0  0  0  0  4  0  0
    2.8673    0.6894   -1.1912 C   0  0  0  0  0  0  0  0  0  5  0  0
    4.0045   -1.1501   -0.1346 C   0  0  0  0  0  0  0  0  0  6  0  0
    4.0193   -2.1808    0.7981 C   0  0  0  0  0  0  0  0  0  7  0  0
    2.9106   -2.4024    1.6073 C   0  0  0  0  0  0  0  0  0  8  0  0
    1.7869   -1.5933    1.4838 C   0  0  0  0  0  0  0  0  0  9  0  0
   -0.4615    0.0282    1.2345 C   0  0  0  0  0  0  0  0  0 10  0  0
   -1.5839    0.8388    1.1089 C   0  0  0  0  0  0  0  0  0 11  0  0
   -1.5965    1.8691    0.1754 C   0  0  0  0  0  0  0  0  0 12  0  0
    1.7445    1.4992   -1.3157 C   0  0  0  0  0  0  0  0  0 13  0  0
   -0.4868    2.0889   -0.6326 C   0  0  0  0  0  0  0  0  0 14  0  0
 14 12  4  0
  1 14  4  0
 13  5  4  0
  1 13  4  0
 11 12  4  0
 10 11  4  0
  2 10  4  0
  9  8  4  0
  3  9  4  0
  7  8  4  0
  6  7  4  0
  4  6  4  0
  4  5  4  0
  3  4  4  0
  2  3  4  0
  1  2  4  0
M  END