n-nitroso-n-phenyl benzenamine
  SciTegic01131010503D

 15 16  0  0  0  0            999 V2000
    2.5703    0.1895    2.3284 O   0  0  0  0  0  0  0  0  0  1  0  0
    2.8926   -0.0638    1.2272 N   0  0  0  0  0  0  0  0  0  2  0  0
    2.1069    0.1258    0.1242 N   0  0  0  0  0  0  0  0  0  3  0  0
    2.7315   -0.3353   -1.1109 C   0  0  0  0  0  0  0  0  0  4  0  0
    3.9925   -0.9118   -0.9930 C   0  0  0  0  0  0  0  0  0  5  0  0
    4.6740   -1.3802   -2.1106 C   0  0  0  0  0  0  0  0  0  6  0  0
    4.0983   -1.2758   -3.3703 C   0  0  0  0  0  0  0  0  0  7  0  0
    2.8408   -0.7014   -3.5039 C   0  0  0  0  0  0  0  0  0  8  0  0
    2.1663   -0.2359   -2.3812 C   0  0  0  0  0  0  0  0  0  9  0  0
    0.7455    0.7550    0.2406 C   0  0  0  0  0  0  0  0  0 10  0  0
    0.2952    1.2125    1.4777 C   0  0  0  0  0  0  0  0  0 11  0  0
   -0.9558    1.7997    1.6291 C   0  0  0  0  0  0  0  0  0 12  0  0
   -1.7938    1.9423    0.5320 C   0  0  0  0  0  0  0  0  0 13  0  0
   -1.3679    1.4937   -0.7104 C   0  0  0  0  0  0  0  0  0 14  0  0
   -0.1140    0.9094   -0.8467 C   0  0  0  0  0  0  0  0  0 15  0  0
 15 14  4  0
 10 15  4  0
 13 14  4  0
 12 13  4  0
 11 12  4  0
 10 11  4  0
  3 10  1  0
  9  8  4  0
  4  9  4  0
  7  8  4  0
  6  7  4  0
  5  6  4  0
  4  5  4  0
  3  4  1  0
  2  3  1  0
  1  2  2  0
M  END