benzenamine, 2,6-dimethyl-
  SciTegic01131010503D

  9  9  0  0  0  0            999 V2000
    1.0590   -0.0697    1.6892 N   0  0  0  0  0  0  0  0  0  1  0  0
    0.2974    0.6748    0.7873 C   0  0  0  0  0  0  0  0  0  2  0  0
    0.1876    2.0520    0.9413 C   0  0  0  0  0  0  0  0  0  3  0  0
   -0.5711    2.7939    0.0429 C   0  0  0  0  0  0  0  0  0  4  0  0
   -1.2200    2.1580   -1.0096 C   0  0  0  0  0  0  0  0  0  5  0  0
   -1.1102    0.7805   -1.1638 C   0  0  0  0  0  0  0  0  0  6  0  0
    0.8881    2.7376    2.0773 C   0  0  0  0  0  0  0  0  0  7  0  0
   -0.3515    0.0391   -0.2651 C   0  0  0  0  0  0  0  0  0  8  0  0
   -0.2326   -1.4475   -0.4309 C   0  0  0  0  0  0  0  0  0  9  0  0
  8  9  1  0
  8  6  4  0
  2  8  4  0
  3  7  1  0
  5  6  4  0
  4  5  4  0
  3  4  4  0
  2  3  4  0
  1  2  1  0
M  END