phenol, 2,4,6-trichloro-
  SciTegic01131010503D

 10 10  0  0  0  0            999 V2000
    2.2550    0.3085    0.7614 O   0  0  0  0  0  0  0  0  0  1  0  0
    0.9600    0.7740    0.5629 C   0  0  0  0  0  0  0  0  0  2  0  0
    0.6011    2.0410    1.0085 C   0  0  0  0  0  0  0  0  0  3  0  0
   -0.6937    2.5067    0.8102 C   0  0  0  0  0  0  0  0  0  4  0  0
   -1.6294    1.7049    0.1661 C   0  0  0  0  0  0  0  0  0  5  0  0
   -1.2705    0.4378   -0.2796 C   0  0  0  0  0  0  0  0  0  6  0  0
   -3.2385    2.2834   -0.0805 Cl  0  0  0  0  0  0  0  0  0  7  0  0
    1.7645    3.0361    1.8086 Cl  0  0  0  0  0  0  0  0  0  8  0  0
    0.0244   -0.0275   -0.0811 C   0  0  0  0  0  0  0  0  0  9  0  0
    0.4716   -1.6017   -0.6343 Cl  0  0  0  0  0  0  0  0  0 10  0  0
  9 10  1  0
  9  6  4  0
  2  9  4  0
  3  8  1  0
  5  7  1  0
  5  6  4  0
  4  5  4  0
  3  4  4  0
  2  3  4  0
  1  2  1  0
M  END