benzene, 1-methyl-2-nitro-
  SciTegic01131010503D

 10 10  0  0  0  0            999 V2000
    1.6306   -0.3807    0.7090 N   0  0  0  0  0  0  0  0  0  1  0  0
    2.1233   -0.0102    1.7032 O   0  0  0  0  0  0  0  0  0  2  0  0
    1.6266   -1.2218   -0.1125 O   0  0  0  0  0  0  0  0  0  3  0  0
    0.5905    0.5474    0.2701 C   0  0  0  0  0  0  0  0  0  4  0  0
    0.1972    1.7355    0.9167 C   0  0  0  0  0  0  0  0  0  5  0  0
   -0.8173    2.5110    0.3627 C   0  0  0  0  0  0  0  0  0  6  0  0
   -1.4506    2.1383   -0.8148 C   0  0  0  0  0  0  0  0  0  7  0  0
   -1.0672    0.9700   -1.4549 C   0  0  0  0  0  0  0  0  0  8  0  0
    0.8017    2.2633    2.2076 C   0  0  0  0  0  0  0  0  0  9  0  0
   -0.0563    0.1895   -0.9105 C   0  0  0  0  0  0  0  0  0 10  0  0
 10  8  4  0
  4 10  4  0
  5  9  1  0
  7  8  4  0
  6  7  4  0
  5  6  4  0
  4  5  4  0
  1  4  1  0
  1  3  2  0
  1  2  2  0
M  END