naphthalene, 1-methyl-
  SciTegic01131010503D

 11 12  0  0  0  0            999 V2000
    1.2420    0.2218   -0.0714 C   0  0  0  0  0  0  0  0  0  1  0  0
    1.6798    1.4353    0.4493 C   0  0  0  0  0  0  0  0  0  2  0  0
    0.7649    2.3215    1.0084 C   0  0  0  0  0  0  0  0  0  3  0  0
   -0.5855    1.9934    1.0462 C   0  0  0  0  0  0  0  0  0  4  0  0
   -1.0224    0.7805    0.5256 C   0  0  0  0  0  0  0  0  0  5  0  0
    1.2310    3.6338    1.5726 C   0  0  0  0  0  0  0  0  0  6  0  0
    3.0315    1.7596    0.4095 C   0  0  0  0  0  0  0  0  0  7  0  0
    3.9441    0.8723   -0.1498 C   0  0  0  0  0  0  0  0  0  8  0  0
    3.5056   -0.3401   -0.6699 C   0  0  0  0  0  0  0  0  0  9  0  0
    2.1545   -0.6653   -0.6307 C   0  0  0  0  0  0  0  0  0 10  0  0
   -0.1085   -0.1054   -0.0333 C   0  0  0  0  0  0  0  0  0 11  0  0
 11  5  4  0
  1 11  4  0
 10  9  4  0
  1 10  4  0
  8  9  4  0
  7  8  4  0
  2  7  4  0
  3  6  1  0
  4  5  4  0
  3  4  4  0
  2  3  4  0
  1  2  4  0
M  END