acetic acid, (2,4-dichlorophenoxy)-
  SciTegic01131010503D

 13 13  0  0  0  0            999 V2000
    3.9674   -0.5078   -1.5376 O   0  0  0  0  0  0  0  0  0  1  0  0
    3.3712    0.1163   -0.6530 C   0  0  0  0  0  0  0  0  0  2  0  0
    3.4050    1.5082   -0.6419 O   0  0  0  0  0  0  0  0  0  3  0  0
    2.6140   -0.6360    0.4233 C   0  0  0  0  0  0  0  0  0  4  0  0
    1.9668    0.2769    1.3392 O   0  0  0  0  0  0  0  0  0  5  0  0
    0.7235    0.7781    0.8714 C   0  0  0  0  0  0  0  0  0  6  0  0
    0.0341    1.6924    1.6602 C   0  0  0  0  0  0  0  0  0  7  0  0
   -1.1887    2.2019    1.2382 C   0  0  0  0  0  0  0  0  0  8  0  0
   -1.7292    1.7967    0.0236 C   0  0  0  0  0  0  0  0  0  9  0  0
   -1.0464    0.8809   -0.7678 C   0  0  0  0  0  0  0  0  0 10  0  0
   -3.2487    2.4299   -0.5010 Cl  0  0  0  0  0  0  0  0  0 11  0  0
    0.7021    2.1975    3.1707 Cl  0  0  0  0  0  0  0  0  0 12  0  0
    0.1760    0.3726   -0.3437 C   0  0  0  0  0  0  0  0  0 13  0  0
 13 10  4  0
  6 13  4  0
  7 12  1  0
  9 11  1  0
  9 10  4  0
  8  9  4  0
  7  8  4  0
  6  7  4  0
  5  6  1  0
  4  5  1  0
  2  4  1  0
  2  3  1  0
  1  2  2  0
M  END