2,4-dichlorophenoxybutyric acid
  SciTegic01131010503D

 15 15  0  0  0  0            999 V2000
    0.3023    7.5195    0.6708 O   0  0  0  0  0  0  0  0  0  1  0  0
   -0.3182    6.2766    0.5967 C   0  0  0  0  0  0  0  0  0  2  0  0
   -1.2567    6.1078   -0.1906 O   0  0  0  0  0  0  0  0  0  3  0  0
    0.1528    5.1623    1.5005 C   0  0  0  0  0  0  0  0  0  4  0  0
   -0.5353    3.8054    1.2038 C   0  0  0  0  0  0  0  0  0  5  0  0
   -0.2040    3.3277   -0.2434 C   0  0  0  0  0  0  0  0  0  6  0  0
   -0.6172    1.9590   -0.4320 O   0  0  0  0  0  0  0  0  0  7  0  0
    0.4285    1.0501   -0.1168 C   0  0  0  0  0  0  0  0  0  8  0  0
    1.6891    1.5040    0.2648 C   0  0  0  0  0  0  0  0  0  9  0  0
    2.7047    0.6041    0.5618 C   0  0  0  0  0  0  0  0  0 10  0  0
    2.4644   -0.7610    0.4761 C   0  0  0  0  0  0  0  0  0 11  0  0
    3.7265   -1.8810    0.8438 Cl  0  0  0  0  0  0  0  0  0 12  0  0
    1.2096   -1.2217    0.0931 C   0  0  0  0  0  0  0  0  0 13  0  0
    0.1944   -0.3186   -0.2036 C   0  0  0  0  0  0  0  0  0 14  0  0
   -1.3609   -0.8991   -0.6806 Cl  0  0  0  0  0  0  0  0  0 15  0  0
 14 15  1  0
 14  8  4  0
 13 14  4  0
 11 13  4  0
 11 12  1  0
 10 11  4  0
  9 10  4  0
  8  9  4  0
  7  8  1  0
  6  7  1  0
  5  6  1  0
  4  5  1  0
  2  4  1  0
  2  3  2  0
  1  2  1  0
M  END