benzene, 1,2-dimethyl-
  SciTegic01131010503D

  8  8  0  0  0  0            999 V2000
    0.4125    0.6415    0.6838 C   0  0  0  0  0  0  0  0  0  1  0  0
    0.1067    1.9750    0.9388 C   0  0  0  0  0  0  0  0  0  2  0  0
   -0.7299    2.6727    0.0747 C   0  0  0  0  0  0  0  0  0  3  0  0
   -1.2611    2.0397   -1.0433 C   0  0  0  0  0  0  0  0  0  4  0  0
   -0.9556    0.7076   -1.2981 C   0  0  0  0  0  0  0  0  0  5  0  0
    0.6768    2.6675    2.1457 C   0  0  0  0  0  0  0  0  0  6  0  0
   -0.1192    0.0092   -0.4347 C   0  0  0  0  0  0  0  0  0  7  0  0
    1.3163   -0.1215    1.6123 C   0  0  0  0  0  0  0  0  0  8  0  0
  1  8  1  0
  7  5  4  0
  1  7  4  0
  2  6  1  0
  4  5  4  0
  3  4  4  0
  2  3  4  0
  1  2  4  0
M  END