phenol, 2-methyl-
  SciTegic01131010503D

  8  8  0  0  0  0            999 V2000
    1.2371   -0.0588    1.5806 O   0  0  0  0  0  0  0  0  0  1  0  0
    0.4129    0.6363    0.7022 C   0  0  0  0  0  0  0  0  0  2  0  0
    0.1103    1.9718    0.9427 C   0  0  0  0  0  0  0  0  0  3  0  0
   -0.7137    2.6671    0.0649 C   0  0  0  0  0  0  0  0  0  4  0  0
   -1.2350    2.0265   -1.0537 C   0  0  0  0  0  0  0  0  0  5  0  0
   -0.9324    0.6909   -1.2943 C   0  0  0  0  0  0  0  0  0  6  0  0
    0.6732    2.6627    2.1501 C   0  0  0  0  0  0  0  0  0  7  0  0
   -0.1084   -0.0043   -0.4163 C   0  0  0  0  0  0  0  0  0  8  0  0
  8  6  4  0
  2  8  4  0
  3  7  1  0
  5  6  4  0
  4  5  4  0
  3  4  4  0
  2  3  4  0
  1  2  1  0
M  END