benzenamine, 2-chloro-
  SciTegic01131010503D

  8  8  0  0  0  0            999 V2000
    1.1694   -0.0924    1.6005 N   0  0  0  0  0  0  0  0  0  1  0  0
    0.3849    0.6178    0.6907 C   0  0  0  0  0  0  0  0  0  2  0  0
    0.0713    1.9499    0.9357 C   0  0  0  0  0  0  0  0  0  3  0  0
   -0.7102    2.6584    0.0300 C   0  0  0  0  0  0  0  0  0  4  0  0
   -1.1780    2.0342   -1.1210 C   0  0  0  0  0  0  0  0  0  5  0  0
   -0.8644    0.7019   -1.3660 C   0  0  0  0  0  0  0  0  0  6  0  0
    0.6532    2.7244    2.3662 Cl  0  0  0  0  0  0  0  0  0  7  0  0
   -0.0829   -0.0064   -0.4602 C   0  0  0  0  0  0  0  0  0  8  0  0
  8  6  4  0
  2  8  4  0
  3  7  1  0
  5  6  4  0
  4  5  4  0
  3  4  4  0
  2  3  4  0
  1  2  1  0
M  END