benzene, 1,2,4-trimethyl-
  SciTegic01131010503D

  9  9  0  0  0  0            999 V2000
    1.3638    0.4163    0.1254 C   0  0  0  0  0  0  0  0  0  1  0  0
    1.4580    1.4844    1.0103 C   0  0  0  0  0  0  0  0  0  2  0  0
    0.3236    2.2196    1.3344 C   0  0  0  0  0  0  0  0  0  3  0  0
   -0.9053    1.8881    0.7746 C   0  0  0  0  0  0  0  0  0  4  0  0
   -0.9992    0.8188   -0.1112 C   0  0  0  0  0  0  0  0  0  5  0  0
   -2.3233    0.4525   -0.7218 C   0  0  0  0  0  0  0  0  0  6  0  0
   -2.1270    2.6887    1.1308 C   0  0  0  0  0  0  0  0  0  7  0  0
    0.1358    0.0840   -0.4349 C   0  0  0  0  0  0  0  0  0  8  0  0
    2.5875   -0.3778   -0.2251 C   0  0  0  0  0  0  0  0  0  9  0  0
  1  9  1  0
  8  5  4  0
  1  8  4  0
  4  7  1  0
  5  6  1  0
  4  5  4  0
  3  4  4  0
  2  3  4  0
  1  2  4  0
M  END