benzene, 1,2,4,5-tetrachloro-
  SciTegic01131010503D

 10 10  0  0  0  0            999 V2000
    1.1688    1.0254    0.2896 C   0  0  0  0  0  0  0  0  0  1  0  0
    0.6946    2.0635    1.0835 C   0  0  0  0  0  0  0  0  0  2  0  0
   -0.6692    2.3271    1.1421 C   0  0  0  0  0  0  0  0  0  3  0  0
   -1.5584    1.5519    0.4064 C   0  0  0  0  0  0  0  0  0  4  0  0
   -1.0842    0.5138   -0.3874 C   0  0  0  0  0  0  0  0  0  5  0  0
   -2.1904   -0.4484   -1.3010 Cl  0  0  0  0  0  0  0  0  0  6  0  0
   -3.2534    1.8782    0.4783 Cl  0  0  0  0  0  0  0  0  0  7  0  0
    1.8008    3.0258    1.9970 Cl  0  0  0  0  0  0  0  0  0  8  0  0
    0.2796    0.2502   -0.4461 C   0  0  0  0  0  0  0  0  0  9  0  0
    2.8637    0.6992    0.2177 Cl  0  0  0  0  0  0  0  0  0 10  0  0
  1 10  1  0
  9  5  4  0
  1  9  4  0
  2  8  1  0
  4  7  1  0
  5  6  1  0
  4  5  4  0
  3  4  4  0
  2  3  4  0
  1  2  4  0
M  END