propane, 1,2,3-trichloro-
  SciTegic01131010503D

  6  5  0  0  0  0            999 V2000
   -0.4569    0.7401   -0.3341 Cl  0  0  0  0  0  0  0  0  0  1  0  0
    0.9339   -0.3497   -0.3997 C   0  0  0  0  0  0  0  0  0  2  0  0
    1.6914   -0.4103    0.9560 C   0  0  0  0  0  0  0  0  0  3  0  0
    0.5999   -0.9520    2.2351 Cl  0  0  0  0  0  0  0  0  0  4  0  0
    2.3394    0.9466    1.3486 C   0  0  0  0  0  0  0  0  0  5  0  0
    1.1275    2.2015    1.6368 Cl  0  0  0  0  0  0  0  0  0  6  0  0
  5  6  1  0
  3  5  1  0
  3  4  1  0
  2  3  1  0
  1  2  1  0
M  END