3-pentanone
  SciTegic01131010503D

  6  5  0  0  0  0            999 V2000
    0.1641    0.8777   -0.0006 O   0  0  0  0  0  0  0  0  0  1  0  0
    1.2558    0.2972   -0.0012 C   0  0  0  0  0  0  0  0  0  2  0  0
    1.9196   -0.0552    1.2982 C   0  0  0  0  0  0  0  0  0  3  0  0
    1.0379    0.4140    2.4699 C   0  0  0  0  0  0  0  0  0  4  0  0
    1.9182   -0.0554   -1.3012 C   0  0  0  0  0  0  0  0  0  5  0  0
    1.0351    0.4136   -2.4720 C   0  0  0  0  0  0  0  0  0  6  0  0
  5  6  1  0
  2  5  1  0
  3  4  1  0
  2  3  1  0
  1  2  2  0
M  END