ethanone, 1-phenyl-
  SciTegic01131010503D

  9  9  0  0  0  0            999 V2000
    1.3098   -1.9503    0.0640 O   0  0  0  0  0  0  0  0  0  1  0  0
    1.6617   -0.7861    0.2839 C   0  0  0  0  0  0  0  0  0  2  0  0
    0.6798    0.2962    0.2193 C   0  0  0  0  0  0  0  0  0  3  0  0
    1.0690    1.6083    0.4656 C   0  0  0  0  0  0  0  0  0  4  0  0
    0.1329    2.6344    0.4033 C   0  0  0  0  0  0  0  0  0  5  0  0
   -1.1923    2.3483    0.0949 C   0  0  0  0  0  0  0  0  0  6  0  0
   -1.5814    1.0363   -0.1513 C   0  0  0  0  0  0  0  0  0  7  0  0
   -0.6453    0.0103   -0.0891 C   0  0  0  0  0  0  0  0  0  8  0  0
    3.0955   -0.4858    0.6164 C   0  0  0  0  0  0  0  0  0  9  0  0
  2  9  1  0
  8  7  4  0
  3  8  4  0
  6  7  4  0
  5  6  4  0
  4  5  4  0
  3  4  4  0
  2  3  1  0
  1  2  2  0
M  END