benzene, 1,1'-oxybis-
  SciTegic01131010503D

 13 14  0  0  0  0            999 V2000
    1.7345   -0.5611    0.5584 O   0  0  0  0  0  0  0  0  0  1  0  0
    3.1424   -0.2160    0.3950 C   0  0  0  0  0  0  0  0  0  2  0  0
    4.0583   -1.2472    0.5815 C   0  0  0  0  0  0  0  0  0  3  0  0
    5.4247   -1.0268    0.4496 C   0  0  0  0  0  0  0  0  0  4  0  0
    5.8970    0.2387    0.1266 C   0  0  0  0  0  0  0  0  0  5  0  0
    4.9959    1.2784   -0.0627 C   0  0  0  0  0  0  0  0  0  6  0  0
    3.6314    1.0488    0.0712 C   0  0  0  0  0  0  0  0  0  7  0  0
    0.6234    0.3716    0.4064 C   0  0  0  0  0  0  0  0  0  8  0  0
    0.7416    1.7229    0.0844 C   0  0  0  0  0  0  0  0  0  9  0  0
   -0.3816    2.5328   -0.0383 C   0  0  0  0  0  0  0  0  0 10  0  0
   -1.6480    1.9987    0.1609 C   0  0  0  0  0  0  0  0  0 11  0  0
   -1.7816    0.6542    0.4823 C   0  0  0  0  0  0  0  0  0 12  0  0
   -0.6527   -0.1483    0.6029 C   0  0  0  0  0  0  0  0  0 13  0  0
 13 12  4  0
  8 13  4  0
 11 12  4  0
 10 11  4  0
  9 10  4  0
  8  9  4  0
  1  8  1  0
  7  6  4  0
  2  7  4  0
  5  6  4  0
  4  5  4  0
  3  4  4  0
  2  3  4  0
  1  2  1  0
M  END