benzene, 1,4-dichloro-
  SciTegic01131010503D

  8  8  0  0  0  0            999 V2000
    1.2232    0.3683    0.0697 C   0  0  0  0  0  0  0  0  0  1  0  0
    1.3479    1.6527    0.5872 C   0  0  0  0  0  0  0  0  0  2  0  0
    0.2139    2.3632    0.9644 C   0  0  0  0  0  0  0  0  0  3  0  0
   -1.0446    1.7889    0.8240 C   0  0  0  0  0  0  0  0  0  4  0  0
   -1.1694    0.5044    0.3065 C   0  0  0  0  0  0  0  0  0  5  0  0
   -2.4539    2.6718    1.2928 Cl  0  0  0  0  0  0  0  0  0  6  0  0
   -0.0353   -0.2060   -0.0707 C   0  0  0  0  0  0  0  0  0  7  0  0
    2.6325   -0.5146   -0.3991 Cl  0  0  0  0  0  0  0  0  0  8  0  0
  1  8  1  0
  7  5  4  0
  1  7  4  0
  4  6  1  0
  4  5  4  0
  3  4  4  0
  2  3  4  0
  1  2  4  0
M  END