ethane, 1,2-dichloro-
  SciTegic01131010503D

  4  3  0  0  0  0            999 V2000
   -0.4833   -0.2028   -0.6260 Cl  0  0  0  0  0  0  0  0  0  1  0  0
    1.1689    0.3150   -0.2744 C   0  0  0  0  0  0  0  0  0  2  0  0
    1.6322   -0.3146    1.0520 C   0  0  0  0  0  0  0  0  0  3  0  0
    0.5584    0.2036    2.3558 Cl  0  0  0  0  0  0  0  0  0  4  0  0
  3  4  1  0
  2  3  1  0
  1  2  1  0
M  END