propanenitrile
  SciTegic01131010503D

  4  3  0  0  0  0            999 V2000
    0.2461   -0.1154   -0.0005 C   0  0  0  0  0  0  0  0  0  1  0  0
    1.3969   -0.0942   -0.0001 N   0  0  0  0  0  0  0  0  0  2  0  0
   -1.2163   -0.1423   -0.0009 C   0  0  0  0  0  0  0  0  0  3  0  0
   -1.7560    1.2998   -0.0013 C   0  0  0  0  0  0  0  0  0  4  0  0
  3  4  1  0
  1  3  1  0
  1  2  3  0
M  END