2-propen-1-ol
  SciTegic01131010503D

  4  3  0  0  0  0            999 V2000
    1.7378    1.1682    0.0028 O   0  0  0  0  0  0  0  0  0  1  0  0
    1.2521   -0.1768   -0.0004 C   0  0  0  0  0  0  0  0  0  2  0  0
   -0.2494   -0.1676   -0.0017 C   0  0  0  0  0  0  0  0  0  3  0  0
   -0.9081    0.9894    0.0000 C   0  0  0  0  0  0  0  0  0  4  0  0
  3  4  2  0
  2  3  1  0
  1  2  1  0
M  END