1,2-ethanediol
  SciTegic01131010503D

  4  3  0  0  0  0            999 V2000
   -0.2962   -0.1896   -0.5033 O   0  0  0  0  0  0  0  0  0  1  0  0
    1.0319    0.2724   -0.2442 C   0  0  0  0  0  0  0  0  0  2  0  0
    1.5087   -0.2730    1.1144 C   0  0  0  0  0  0  0  0  0  3  0  0
    0.6323    0.1867    2.1463 O   0  0  0  0  0  0  0  0  0  4  0  0
  3  4  1  0
  2  3  1  0
  1  2  1  0
M  END