methane, chloromethoxy-
  SciTegic01131010503D

  4  3  0  0  0  0            999 V2000
   -0.2568   -0.0945   -0.3067 O   0  0  0  0  0  0  0  0  0  1  0  0
    1.1642   -0.2430   -0.2389 C   0  0  0  0  0  0  0  0  0  2  0  0
    1.7118    0.0558    1.4146 Cl  0  0  0  0  0  0  0  0  0  3  0  0
   -0.6178    1.2352    0.0767 C   0  0  0  0  0  0  0  0  0  4  0  0
  1  4  1  0
  2  3  1  0
  1  2  1  0
M  END