dichloro-di-isopropyl ether
  SciTegic01131010503D

  9  8  0  0  0  0            999 V2000
   -0.5887    0.0380    0.1206 O   0  0  0  0  0  0  0  0  0  1  0  0
    0.6147   -0.7110   -0.2698 C   0  0  0  0  0  0  0  0  0  2  0  0
    1.7307   -0.7908    0.7977 C   0  0  0  0  0  0  0  0  0  3  0  0
    1.0639   -1.4475    2.2955 Cl  0  0  0  0  0  0  0  0  0  4  0  0
    1.1464   -0.2516   -1.6457 C   0  0  0  0  0  0  0  0  0  5  0  0
   -0.6336    1.5302    0.0336 C   0  0  0  0  0  0  0  0  0  6  0  0
    0.2637    2.3800    1.0141 C   0  0  0  0  0  0  0  0  0  7  0  0
    1.9986    2.3023    0.6693 Cl  0  0  0  0  0  0  0  0  0  8  0  0
   -2.0912    1.9198    0.3383 C   0  0  0  0  0  0  0  0  0  9  0  0
  6  9  1  0
  7  8  1  0
  6  7  1  0
  1  6  1  0
  2  5  1  0
  3  4  1  0
  2  3  1  0
  1  2  1  0
M  END