benzene, methyl-
  SciTegic01131010503D

  7  7  0  0  0  0            999 V2000
    0.8986    0.4451    0.4453 C   0  0  0  0  0  0  0  0  0  1  0  0
    1.0036    1.7956    0.7588 C   0  0  0  0  0  0  0  0  0  2  0  0
   -0.0647    2.6511    0.5135 C   0  0  0  0  0  0  0  0  0  3  0  0
   -1.2378    2.1561   -0.0453 C   0  0  0  0  0  0  0  0  0  4  0  0
   -1.3426    0.8055   -0.3587 C   0  0  0  0  0  0  0  0  0  5  0  0
   -0.2744   -0.0501   -0.1134 C   0  0  0  0  0  0  0  0  0  6  0  0
    2.0516   -0.4784    0.7101 C   0  0  0  0  0  0  0  0  0  7  0  0
  1  7  1  0
  6  5  4  0
  1  6  4  0
  4  5  4  0
  3  4  4  0
  2  3  4  0
  1  2  4  0
M  END