pyridine, 4-methyl-
  SciTegic01131010503D

  7  7  0  0  0  0            999 V2000
    1.5461    0.8801    0.1372 N   0  0  0  0  0  0  0  0  0  1  0  0
    1.3095    2.1095    0.5852 C   0  0  0  0  0  0  0  0  0  2  0  0
    0.0152    2.5162    0.8888 C   0  0  0  0  0  0  0  0  0  3  0  0
   -1.0305    1.6197    0.7177 C   0  0  0  0  0  0  0  0  0  4  0  0
   -0.7527    0.3432    0.2486 C   0  0  0  0  0  0  0  0  0  5  0  0
   -2.4400    2.0242    1.0353 C   0  0  0  0  0  0  0  0  0  6  0  0
    0.5641    0.0004   -0.0362 C   0  0  0  0  0  0  0  0  0  7  0  0
  7  5  4  0
  1  7  4  0
  4  6  1  0
  4  5  4  0
  3  4  4  0
  2  3  4  0
  1  2  4  0
M  END