benzene, chloro-
  SciTegic01131010503D

  7  7  0  0  0  0            999 V2000
    0.8713    0.4594    0.4356 C   0  0  0  0  0  0  0  0  0  1  0  0
    0.9840    1.8074    0.7573 C   0  0  0  0  0  0  0  0  0  2  0  0
   -0.0794    2.6705    0.5175 C   0  0  0  0  0  0  0  0  0  3  0  0
   -1.2553    2.1854   -0.0440 C   0  0  0  0  0  0  0  0  0  4  0  0
   -1.3680    0.8374   -0.3656 C   0  0  0  0  0  0  0  0  0  5  0  0
   -0.3046   -0.0257   -0.1258 C   0  0  0  0  0  0  0  0  0  6  0  0
    2.1928   -0.6132    0.7336 Cl  0  0  0  0  0  0  0  0  0  7  0  0
  1  7  1  0
  6  5  4  0
  1  6  4  0
  4  5  4  0
  3  4  4  0
  2  3  4  0
  1  2  4  0
M  END