cyclohexanone
  SciTegic01131010503D

  7  7  0  0  0  0            999 V2000
    0.5341    0.8111    0.5150 O   0  0  0  0  0  0  0  0  0  1  0  0
    1.4240    0.2019   -0.0883 C   0  0  0  0  0  0  0  0  0  2  0  0
    2.7913    0.0778    0.5630 C   0  0  0  0  0  0  0  0  0  3  0  0
    3.8724   -0.4741   -0.3879 C   0  0  0  0  0  0  0  0  0  4  0  0
    3.3412   -1.6684   -1.1831 C   0  0  0  0  0  0  0  0  0  5  0  0
    2.2651   -1.1100   -2.1164 C   0  0  0  0  0  0  0  0  0  6  0  0
    1.0458   -0.6128   -1.3141 C   0  0  0  0  0  0  0  0  0  7  0  0
  7  6  1  0
  2  7  1  0
  5  6  1  0
  4  5  1  0
  3  4  1  0
  2  3  1  0
  1  2  2  0
M  END