phenol
  SciTegic01131010503D

  7  7  0  0  0  0            999 V2000
    1.9838   -0.4155    0.6936 O   0  0  0  0  0  0  0  0  0  1  0  0
    0.9126    0.4370    0.4483 C   0  0  0  0  0  0  0  0  0  2  0  0
    1.0146    1.7884    0.7588 C   0  0  0  0  0  0  0  0  0  3  0  0
   -0.0563    2.6407    0.5135 C   0  0  0  0  0  0  0  0  0  4  0  0
   -1.2290    2.1413   -0.0422 C   0  0  0  0  0  0  0  0  0  5  0  0
   -1.3309    0.7898   -0.3526 C   0  0  0  0  0  0  0  0  0  6  0  0
   -0.2600   -0.0625   -0.1074 C   0  0  0  0  0  0  0  0  0  7  0  0
  7  6  4  0
  2  7  4  0
  5  6  4  0
  4  5  4  0
  3  4  4  0
  2  3  4  0
  1  2  1  0
M  END