acetic acid, propyl ester
  SciTegic01131010503D

  7  6  0  0  0  0            999 V2000
    0.3269   -1.4414    0.7541 O   0  0  0  0  0  0  0  0  0  1  0  0
    1.2155   -1.0174    0.0060 C   0  0  0  0  0  0  0  0  0  2  0  0
    1.5544    0.3333    0.0181 O   0  0  0  0  0  0  0  0  0  3  0  0
    0.7438    1.0260    0.9708 C   0  0  0  0  0  0  0  0  0  4  0  0
    1.1232    2.5170    0.9763 C   0  0  0  0  0  0  0  0  0  5  0  0
    0.8930    3.1096   -0.4261 C   0  0  0  0  0  0  0  0  0  6  0  0
    1.9303   -1.9598   -0.9174 C   0  0  0  0  0  0  0  0  0  7  0  0
  2  7  1  0
  5  6  1  0
  4  5  1  0
  3  4  1  0
  2  3  1  0
  1  2  2  0
M  END