formic acid, ethyl ester
  SciTegic01131010503D

  5  4  0  0  0  0            999 V2000
   -0.2647   -0.0447   -0.1194 O   0  0  0  0  0  0  0  0  0  1  0  0
    0.8312   -0.6173   -0.0723 C   0  0  0  0  0  0  0  0  0  2  0  0
    1.8721   -0.1502    0.7517 O   0  0  0  0  0  0  0  0  0  3  0  0
    1.5146    1.0599    1.4498 C   0  0  0  0  0  0  0  0  0  4  0  0
    1.4866    2.2676    0.4801 C   0  0  0  0  0  0  0  0  0  5  0  0
  4  5  1  0
  3  4  1  0
  2  3  1  0
  1  2  2  0
M  END