furan, tetrahydro-
  SciTegic01131010503D

  5  5  0  0  0  0            999 V2000
   -0.1556    1.1237    0.9935 O   0  0  0  0  0  0  0  0  0  1  0  0
    0.7836    2.2417    0.9723 C   0  0  0  0  0  0  0  0  0  2  0  0
    1.5243    2.0941   -0.3568 C   0  0  0  0  0  0  0  0  0  3  0  0
    0.3496    1.7474   -1.2298 C   0  0  0  0  0  0  0  0  0  4  0  0
   -0.2441    0.6263   -0.3766 C   0  0  0  0  0  0  0  0  0  5  0  0
  5  4  1  0
  1  5  1  0
  3  4  1  0
  2  3  1  0
  1  2  1  0
M  END