furan
  SciTegic01131010503D

  5  5  0  0  0  0            999 V2000
    0.2879    1.8306   -0.0001 O   0  0  0  0  0  0  0  0  0  1  0  0
    1.4768    1.1525   -0.0008 C   0  0  0  0  0  0  0  0  0  2  0  0
    1.2152   -0.1517   -0.0013 C   0  0  0  0  0  0  0  0  0  3  0  0
   -0.2281   -0.2961   -0.0008 C   0  0  0  0  0  0  0  0  0  4  0  0
   -0.7430    0.9303   -0.0001 C   0  0  0  0  0  0  0  0  0  5  0  0
  5  1  4  0
  4  5  4  0
  3  4  4  0
  2  3  4  0
  1  2  4  0
M  END