propane, 1,1'-oxybis-
  SciTegic01131010503D

  7  6  0  0  0  0            999 V2000
    0.5103    0.4111    0.2443 O   0  0  0  0  0  0  0  0  0  1  0  0
    0.3191   -1.0048    0.2000 C   0  0  0  0  0  0  0  0  0  2  0  0
    0.9593   -1.6461    1.4442 C   0  0  0  0  0  0  0  0  0  3  0  0
    0.3000   -1.0754    2.7136 C   0  0  0  0  0  0  0  0  0  4  0  0
   -0.0782    1.0094   -0.9129 C   0  0  0  0  0  0  0  0  0  5  0  0
    0.1243    2.5343   -0.8586 C   0  0  0  0  0  0  0  0  0  6  0  0
    1.6308    2.8520   -0.8225 C   0  0  0  0  0  0  0  0  0  7  0  0
  6  7  1  0
  5  6  1  0
  1  5  1  0
  3  4  1  0
  2  3  1  0
  1  2  1  0
M  END