octane
  SciTegic01131010503D

  8  7  0  0  0  0            999 V2000
   -0.8308   -1.2578   -0.5548 C   0  0  0  0  0  0  0  0  0  1  0  0
    0.5206   -1.8590   -0.0898 C   0  0  0  0  0  0  0  0  0  2  0  0
    1.5084   -0.8362    0.5864 C   0  0  0  0  0  0  0  0  0  3  0  0
    1.0900   -0.4019    2.0495 C   0  0  0  0  0  0  0  0  0  4  0  0
   -0.0847    0.6377    2.2069 C   0  0  0  0  0  0  0  0  0  5  0  0
    0.3404    2.1391    2.0053 C   0  0  0  0  0  0  0  0  0  6  0  0
    0.7758    2.4987    0.5682 C   0  0  0  0  0  0  0  0  0  7  0  0
   -0.5924   -0.2377   -1.6864 C   0  0  0  0  0  0  0  0  0  8  0  0
  1  8  1  0
  6  7  1  0
  5  6  1  0
  4  5  1  0
  3  4  1  0
  2  3  1  0
  1  2  1  0
M  END