1-octene
  SciTegic01131010503D

  8  7  0  0  0  0            999 V2000
    1.2783    1.0077   -2.0105 C   0  0  0  0  0  0  0  0  0  1  0  0
    1.0133    0.2914   -3.1006 C   0  0  0  0  0  0  0  0  0  2  0  0
    0.1530    1.5699   -1.1910 C   0  0  0  0  0  0  0  0  0  3  0  0
    0.7286    2.3413    0.0232 C   0  0  0  0  0  0  0  0  0  4  0  0
    1.5969    1.4363    0.9664 C   0  0  0  0  0  0  0  0  0  5  0  0
    0.8672    0.5657    2.0868 C   0  0  0  0  0  0  0  0  0  6  0  0
   -0.1200   -0.5678    1.6402 C   0  0  0  0  0  0  0  0  0  7  0  0
   -1.5530   -0.0435    1.3743 C   0  0  0  0  0  0  0  0  0  8  0  0
  7  8  1  0
  6  7  1  0
  5  6  1  0
  4  5  1  0
  3  4  1  0
  1  3  1  0
  1  2  2  0
M  END