dodecane
  SciTegic01131010503D

 12 11  0  0  0  0            999 V2000
   -1.7741   -1.2058   -2.2384 C   0  0  0  0  0  0  0  0  0  1  0  0
   -2.1116   -2.2104   -1.0825 C   0  0  0  0  0  0  0  0  0  2  0  0
   -1.2838   -2.1231    0.2792 C   0  0  0  0  0  0  0  0  0  3  0  0
   -1.3984   -0.8249    1.1541 C   0  0  0  0  0  0  0  0  0  4  0  0
   -0.4308    0.2982    0.7012 C   0  0  0  0  0  0  0  0  0  5  0  0
    1.0234   -0.1945    0.8110 C   0  0  0  0  0  0  0  0  0  6  0  0
    1.9790    0.9252    0.3549 C   0  0  0  0  0  0  0  0  0  7  0  0
    3.4473    0.4375    0.4678 C   0  0  0  0  0  0  0  0  0  8  0  0
    3.9140    0.0722    1.9287 C   0  0  0  0  0  0  0  0  0  9  0  0
    4.2266    1.2982    2.8720 C   0  0  0  0  0  0  0  0  0 10  0  0
    2.9843    2.0924    3.3461 C   0  0  0  0  0  0  0  0  0 11  0  0
   -2.5081    0.1498   -2.0878 C   0  0  0  0  0  0  0  0  0 12  0  0
  1 12  1  0
 10 11  1  0
  9 10  1  0
  8  9  1  0
  7  8  1  0
  6  7  1  0
  5  6  1  0
  4  5  1  0
  3  4  1  0
  2  3  1  0
  1  2  1  0
M  END