aldicarb
  SciTegic01131010503D

 12 11  0  0  0  0            999 V2000
    1.7778   -1.2996   -0.7258 O   0  0  0  0  0  0  0  0  0  1  0  0
    2.1137   -0.1110   -0.7703 C   0  0  0  0  0  0  0  0  0  2  0  0
    1.2107    0.8780   -0.4066 O   0  0  0  0  0  0  0  0  0  3  0  0
    0.0641    0.3162   -0.0511 N   0  0  0  0  0  0  0  0  0  4  0  0
   -0.9342    1.0115    0.3312 C   0  0  0  0  0  0  0  0  0  5  0  0
   -0.8901    2.5236    0.4110 C   0  0  0  0  0  0  0  0  0  6  0  0
    0.6186    3.0695    1.2551 S   0  0  0  0  0  0  0  0  0  7  0  0
    0.6491    2.3920    2.9327 C   0  0  0  0  0  0  0  0  0  8  0  0
   -2.1292    3.0308    1.1705 C   0  0  0  0  0  0  0  0  0  9  0  0
   -0.8969    3.1150   -1.0149 C   0  0  0  0  0  0  0  0  0 10  0  0
    3.3998    0.2369   -1.1849 N   0  0  0  0  0  0  0  0  0 11  0  0
    4.3330   -0.7859   -1.5599 C   0  0  0  0  0  0  0  0  0 12  0  0
 11 12  1  0
  2 11  1  0
  6 10  1  0
  6  9  1  0
  7  8  1  0
  6  7  1  0
  5  6  1  0
  4  5  2  0
  3  4  1  0
  2  3  1  0
  1  2  2  0
M  END