benzoic acid, 2-methyl-
  SciTegic01131010503D

 10 10  0  0  0  0            999 V2000
    1.2851   -1.7009    0.2179 O   0  0  0  0  0  0  0  0  0  1  0  0
    1.3724   -0.5612    0.6879 C   0  0  0  0  0  0  0  0  0  2  0  0
    2.3802   -0.3025    1.6156 O   0  0  0  0  0  0  0  0  0  3  0  0
    0.3881    0.4728    0.2306 C   0  0  0  0  0  0  0  0  0  4  0  0
    0.3699    1.8000    0.6784 C   0  0  0  0  0  0  0  0  0  5  0  0
   -0.5903    2.6790    0.1871 C   0  0  0  0  0  0  0  0  0  6  0  0
   -1.5320    2.2572   -0.7425 C   0  0  0  0  0  0  0  0  0  7  0  0
   -1.5166    0.9429   -1.1880 C   0  0  0  0  0  0  0  0  0  8  0  0
    1.3536    2.3384    1.6836 C   0  0  0  0  0  0  0  0  0  9  0  0
   -0.5602    0.0609   -0.7010 C   0  0  0  0  0  0  0  0  0 10  0  0
 10  8  4  0
  4 10  4  0
  5  9  1  0
  7  8  4  0
  6  7  4  0
  5  6  4  0
  4  5  4  0
  2  4  1  0
  2  3  1  0
  1  2  2  0
M  END