benzoic acid, 2-chloro-
  SciTegic01131010503D

 10 10  0  0  0  0            999 V2000
    1.3038   -1.6956    0.2382 O   0  0  0  0  0  0  0  0  0  1  0  0
    1.3315   -0.5481    0.6965 C   0  0  0  0  0  0  0  0  0  2  0  0
    2.2713   -0.2268    1.6679 O   0  0  0  0  0  0  0  0  0  3  0  0
    0.3641    0.4497    0.1983 C   0  0  0  0  0  0  0  0  0  4  0  0
    0.3417    1.7613    0.6733 C   0  0  0  0  0  0  0  0  0  5  0  0
   -0.5906    2.6625    0.1703 C   0  0  0  0  0  0  0  0  0  6  0  0
   -1.4999    2.2646   -0.8023 C   0  0  0  0  0  0  0  0  0  7  0  0
   -1.4784    0.9588   -1.2759 C   0  0  0  0  0  0  0  0  0  8  0  0
    1.4532    2.3043    1.8837 Cl  0  0  0  0  0  0  0  0  0  9  0  0
   -0.5480    0.0561   -0.7753 C   0  0  0  0  0  0  0  0  0 10  0  0
 10  8  4  0
  4 10  4  0
  5  9  1  0
  7  8  4  0
  6  7  4  0
  5  6  4  0
  4  5  4  0
  2  4  1  0
  2  3  1  0
  1  2  2  0
M  END