benzene, 1,2,4-trichloro-
  SciTegic01131010503D

  9  9  0  0  0  0            999 V2000
    1.3884    0.4297    0.1227 C   0  0  0  0  0  0  0  0  0  1  0  0
    1.4759    1.4721    1.0387 C   0  0  0  0  0  0  0  0  0  2  0  0
    0.3385    2.1956    1.3793 C   0  0  0  0  0  0  0  0  0  3  0  0
   -0.8861    1.8762    0.8037 C   0  0  0  0  0  0  0  0  0  4  0  0
   -0.9735    0.8338   -0.1121 C   0  0  0  0  0  0  0  0  0  5  0  0
   -2.4959    0.4381   -0.8264 Cl  0  0  0  0  0  0  0  0  0  6  0  0
   -2.3001    2.7743    1.2262 Cl  0  0  0  0  0  0  0  0  0  7  0  0
    0.1637    0.1103   -0.4528 C   0  0  0  0  0  0  0  0  0  8  0  0
    2.8020   -0.4692   -0.3004 Cl  0  0  0  0  0  0  0  0  0  9  0  0
  1  9  1  0
  8  5  4  0
  1  8  4  0
  4  7  1  0
  5  6  1  0
  4  5  4  0
  3  4  4  0
  2  3  4  0
  1  2  4  0
M  END