phenol, 2,4-dichloro-
  SciTegic01131010503D

  9  9  0  0  0  0            999 V2000
    2.5192    0.6089    0.6490 O   0  0  0  0  0  0  0  0  0  1  0  0
    1.1691    0.8761    0.4507 C   0  0  0  0  0  0  0  0  0  2  0  0
    0.5933    2.0050    1.0224 C   0  0  0  0  0  0  0  0  0  3  0  0
   -0.7565    2.2730    0.8248 C   0  0  0  0  0  0  0  0  0  4  0  0
   -1.5302    1.4116    0.0552 C   0  0  0  0  0  0  0  0  0  5  0  0
   -0.9545    0.2825   -0.5166 C   0  0  0  0  0  0  0  0  0  6  0  0
   -3.2077    1.7443   -0.1907 Cl  0  0  0  0  0  0  0  0  0  7  0  0
    1.5558    3.0745    1.9784 Cl  0  0  0  0  0  0  0  0  0  8  0  0
    0.3953    0.0146   -0.3189 C   0  0  0  0  0  0  0  0  0  9  0  0
  9  6  4  0
  2  9  4  0
  3  8  1  0
  5  7  1  0
  5  6  4  0
  4  5  4  0
  3  4  4  0
  2  3  4  0
  1  2  1  0
M  END