benzenamine, n-phenyl-
  SciTegic01131010503D

 13 14  0  0  0  0            999 V2000
    1.7470   -0.5022    0.5397 N   0  0  0  0  0  0  0  0  0  1  0  0
    3.1517   -0.2138    0.3731 C   0  0  0  0  0  0  0  0  0  2  0  0
    4.0583   -1.2114    0.7169 C   0  0  0  0  0  0  0  0  0  3  0  0
    5.4265   -1.0081    0.5754 C   0  0  0  0  0  0  0  0  0  4  0  0
    5.9028    0.2003    0.0822 C   0  0  0  0  0  0  0  0  0  5  0  0
    5.0063    1.2018   -0.2689 C   0  0  0  0  0  0  0  0  0  6  0  0
    3.6397    0.9929   -0.1242 C   0  0  0  0  0  0  0  0  0  7  0  0
    0.6178    0.3892    0.4202 C   0  0  0  0  0  0  0  0  0  8  0  0
    0.7342    1.7716    0.2897 C   0  0  0  0  0  0  0  0  0  9  0  0
   -0.3962    2.5741    0.1891 C   0  0  0  0  0  0  0  0  0 10  0  0
   -1.6607    1.9995    0.2201 C   0  0  0  0  0  0  0  0  0 11  0  0
   -1.7880    0.6225    0.3538 C   0  0  0  0  0  0  0  0  0 12  0  0
   -0.6534   -0.1749    0.4550 C   0  0  0  0  0  0  0  0  0 13  0  0
 13 12  4  0
  8 13  4  0
 11 12  4  0
 10 11  4  0
  9 10  4  0
  8  9  4  0
  1  8  1  0
  7  6  4  0
  2  7  4  0
  5  6  4  0
  4  5  4  0
  3  4  4  0
  2  3  4  0
  1  2  1  0
M  END