decane
  SciTegic01131010503D

 10  9  0  0  0  0            999 V2000
    2.2019   -0.5238    2.7479 C   0  0  0  0  0  0  0  0  0  1  0  0
    1.2366   -1.7236    2.5621 C   0  0  0  0  0  0  0  0  0  2  0  0
   -0.2423   -1.2774    2.7091 C   0  0  0  0  0  0  0  0  0  3  0  0
   -0.6431   -0.3025    1.5727 C   0  0  0  0  0  0  0  0  0  4  0  0
   -0.5470   -1.0138    0.2029 C   0  0  0  0  0  0  0  0  0  5  0  0
   -0.9354   -0.0342   -0.9219 C   0  0  0  0  0  0  0  0  0  6  0  0
    0.0325    1.1649   -0.9253 C   0  0  0  0  0  0  0  0  0  7  0  0
   -0.3615    2.1389   -2.0497 C   0  0  0  0  0  0  0  0  0  8  0  0
    0.6053    3.3366   -2.0517 C   0  0  0  0  0  0  0  0  0  9  0  0
    2.0726    0.0470    4.1778 C   0  0  0  0  0  0  0  0  0 10  0  0
  1 10  1  0
  8  9  1  0
  7  8  1  0
  6  7  1  0
  5  6  1  0
  4  5  1  0
  3  4  1  0
  2  3  1  0
  1  2  1  0
M  END