methanamine, n-methyl-
  SciTegic01131010503D

  3  2  0  0  0  0            999 V2000
   -0.1055   -0.1478   -0.0025 N   0  0  0  0  0  0  0  0  0  1  0  0
    1.3644   -0.1494    0.0025 C   0  0  0  0  0  0  0  0  0  2  0  0
   -0.5948    1.2384   -0.0018 C   0  0  0  0  0  0  0  0  0  3  0  0
  1  3  1  0
  1  2  1  0
M  END