pyrene
  SciTegic01131010503D

 16 19  0  0  0  0            999 V2000
    0.0913    0.1440    0.0818 C   0  0  0  0  0  0  0  0  0  1  0  0
   -0.1666    1.4689   -0.2505 C   0  0  0  0  0  0  0  0  0  2  0  0
    0.3157    1.9925   -1.4449 C   0  0  0  0  0  0  0  0  0  3  0  0
    1.0556    1.1912   -2.3067 C   0  0  0  0  0  0  0  0  0  4  0  0
    1.3135   -0.1337   -1.9745 C   0  0  0  0  0  0  0  0  0  5  0  0
    0.0578    3.3173   -1.7771 C   0  0  0  0  0  0  0  0  0  6  0  0
   -0.6823    4.1184   -0.9149 C   0  0  0  0  0  0  0  0  0  7  0  0
   -1.1646    3.5951    0.2795 C   0  0  0  0  0  0  0  0  0  8  0  0
   -0.9067    2.2703    0.6117 C   0  0  0  0  0  0  0  0  0  9  0  0
   -1.3887    1.7467    1.8058 C   0  0  0  0  0  0  0  0  0 10  0  0
   -1.1308    0.4217    2.1380 C   0  0  0  0  0  0  0  0  0 11  0  0
    0.8314   -0.6573   -0.7804 C   0  0  0  0  0  0  0  0  0 12  0  0
    1.0893   -1.9821   -0.4482 C   0  0  0  0  0  0  0  0  0 13  0  0
    0.6071   -2.5055    0.7462 C   0  0  0  0  0  0  0  0  0 14  0  0
   -0.1330   -1.7044    1.6084 C   0  0  0  0  0  0  0  0  0 15  0  0
   -0.3909   -0.3795    1.2762 C   0  0  0  0  0  0  0  0  0 16  0  0
 16 15  4  0
 16 11  4  0
  1 16  4  0
 14 15  4  0
 13 14  4  0
 12 13  4  0
 12  5  4  0
  1 12  4  0
 10 11  4  0
  9 10  4  0
  9  8  4  0
  2  9  4  0
  7  8  4  0
  6  7  4  0
  3  6  4  0
  4  5  4  0
  3  4  4  0
  2  3  4  0
  1  2  4  0
M  END