ethanol, 2-amino-
  SciTegic01131010503D

  4  3  0  0  0  0            999 V2000
   -0.2895    0.1915   -0.5098 O   0  0  0  0  0  0  0  0  0  1  0  0
    1.0357   -0.2785   -0.2503 C   0  0  0  0  0  0  0  0  0  2  0  0
    1.5191    0.2724    1.1037 C   0  0  0  0  0  0  0  0  0  3  0  0
    0.6167   -0.1863    2.1692 N   0  0  0  0  0  0  0  0  0  4  0  0
  3  4  1  0
  2  3  1  0
  1  2  1  0
M  END