acetic acid ethyl ester
  SciTegic01131010503D

  6  5  0  0  0  0            999 V2000
   -0.2820   -1.0095   -0.3041 O   0  0  0  0  0  0  0  0  0  1  0  0
    0.7071   -0.2865   -0.1403 C   0  0  0  0  0  0  0  0  0  2  0  0
    0.9853    0.2067    1.1674 O   0  0  0  0  0  0  0  0  0  3  0  0
    2.1506    1.0617    1.2551 C   0  0  0  0  0  0  0  0  0  4  0  0
    1.7727    2.5456    0.9758 C   0  0  0  0  0  0  0  0  0  5  0  0
    1.6098   -0.0074   -1.3264 C   0  0  0  0  0  0  0  0  0  6  0  0
  2  6  1  0
  4  5  1  0
  3  4  1  0
  2  3  1  0
  1  2  2  0
M  END