perylene
  SciTegic01131010503D

 20 24  0  0  0  0            999 V2000
   -1.3352    1.3279    0.8726 C   0  0  0  0  0  0  0  0  0  1  0  0
   -1.5778    2.6886    0.7195 C   0  0  0  0  0  0  0  0  0  2  0  0
   -2.7530    3.2452    1.2106 C   0  0  0  0  0  0  0  0  0  3  0  0
   -3.6862    2.4413    1.8550 C   0  0  0  0  0  0  0  0  0  4  0  0
   -3.4441    1.0810    2.0081 C   0  0  0  0  0  0  0  0  0  5  0  0
   -0.6452    3.4933    0.0754 C   0  0  0  0  0  0  0  0  0  6  0  0
    0.5304    2.9375   -0.4161 C   0  0  0  0  0  0  0  0  0  7  0  0
    0.7732    1.5773   -0.2633 C   0  0  0  0  0  0  0  0  0  8  0  0
   -2.2688    0.5239    1.5171 C   0  0  0  0  0  0  0  0  0  9  0  0
   -2.0263   -0.8361    1.6701 C   0  0  0  0  0  0  0  0  0 10  0  0
   -0.8504   -1.3918    1.1785 C   0  0  0  0  0  0  0  0  0 11  0  0
   -0.6078   -2.7525    1.3315 C   0  0  0  0  0  0  0  0  0 12  0  0
   -1.5404   -3.5572    1.9757 C   0  0  0  0  0  0  0  0  0 13  0  0
   -2.7160   -3.0014    2.4671 C   0  0  0  0  0  0  0  0  0 14  0  0
    0.5674   -3.3091    0.8404 C   0  0  0  0  0  0  0  0  0 15  0  0
    1.5006   -2.5052    0.1961 C   0  0  0  0  0  0  0  0  0 16  0  0
    1.2584   -1.1449    0.0429 C   0  0  0  0  0  0  0  0  0 17  0  0
    0.0831   -0.5878    0.5339 C   0  0  0  0  0  0  0  0  0 18  0  0
   -2.9588   -1.6412    2.3143 C   0  0  0  0  0  0  0  0  0 19  0  0
   -0.1593    0.7722    0.3810 C   0  0  0  0  0  0  0  0  0 20  0  0
 20 18  4  0
 20  8  4  0
  1 20  4  0
 19 14  4  0
 10 19  4  0
 18 17  4  0
 11 18  4  0
 16 17  4  0
 15 16  4  0
 12 15  4  0
 13 14  4  0
 12 13  4  0
 11 12  4  0
 10 11  4  0
  9 10  4  0
  9  5  4  0
  1  9  4  0
  7  8  4  0
  6  7  4  0
  2  6  4  0
  4  5  4  0
  3  4  4  0
  2  3  4  0
  1  2  4  0
M  END