fluoranthene
  SciTegic01131010503D

 16 19  0  0  0  0            999 V2000
   -2.0353    0.2923    1.2074 C   0  0  0  0  0  0  0  0  0  1  0  0
   -2.1601    1.3122    2.1055 C   0  0  0  0  0  0  0  0  0  2  0  0
   -3.4109    1.4788    2.6972 C   0  0  0  0  0  0  0  0  0  3  0  0
   -4.4620    0.6111    2.3518 C   0  0  0  0  0  0  0  0  0  4  0  0
   -4.3024   -0.4292    1.4241 C   0  0  0  0  0  0  0  0  0  5  0  0
   -1.0243    2.0848    2.3407 C   0  0  0  0  0  0  0  0  0  6  0  0
    0.1695    1.7871    1.6601 C   0  0  0  0  0  0  0  0  0  7  0  0
    0.2664    0.7310    0.7417 C   0  0  0  0  0  0  0  0  0  8  0  0
   -3.0441   -0.5617    0.8582 C   0  0  0  0  0  0  0  0  0  9  0  0
   -2.5093   -1.4453   -0.0742 C   0  0  0  0  0  0  0  0  0 10  0  0
   -1.1773   -1.1071   -0.2731 C   0  0  0  0  0  0  0  0  0 11  0  0
   -0.3669   -1.8067   -1.1513 C   0  0  0  0  0  0  0  0  0 12  0  0
   -0.9553   -2.8740   -1.8310 C   0  0  0  0  0  0  0  0  0 13  0  0
   -2.2984   -3.2150   -1.6304 C   0  0  0  0  0  0  0  0  0 14  0  0
   -3.1047   -2.5019   -0.7424 C   0  0  0  0  0  0  0  0  0 15  0  0
   -0.8846   -0.0133    0.5356 C   0  0  0  0  0  0  0  0  0 16  0  0
 16 11  4  0
 16  8  4  0
  1 16  4  0
 15 14  4  0
 10 15  4  0
 13 14  4  0
 12 13  4  0
 11 12  4  0
 10 11  4  0
  9 10  4  0
  9  5  4  0
  1  9  4  0
  7  8  4  0
  6  7  4  0
  2  6  4  0
  4  5  4  0
  3  4  4  0
  2  3  4  0
  1  2  4  0
M  END