benzo(k)fluoranthene
  SciTegic01131010503D

 20 24  0  0  0  0            999 V2000
   -1.3820    5.8545    1.5120 C   0  0  0  0  0  0  0  0  0  1  0  0
   -0.0597    6.0448    1.8953 C   0  0  0  0  0  0  0  0  0  2  0  0
    0.8573    5.0081    1.7679 C   0  0  0  0  0  0  0  0  0  3  0  0
    0.4579    3.7780    1.2577 C   0  0  0  0  0  0  0  0  0  4  0  0
    1.3996    2.7549    1.1408 C   0  0  0  0  0  0  0  0  0  5  0  0
    0.9536    1.5496    0.6276 C   0  0  0  0  0  0  0  0  0  6  0  0
   -0.3667    1.3596    0.2450 C   0  0  0  0  0  0  0  0  0  7  0  0
   -1.3115    2.3648    0.3550 C   0  0  0  0  0  0  0  0  0  8  0  0
   -0.8762    3.5860    0.8710 C   0  0  0  0  0  0  0  0  0  9  0  0
   -1.7882    4.6274    1.0011 C   0  0  0  0  0  0  0  0  0 10  0  0
   -0.4967    0.0565   -0.2248 C   0  0  0  0  0  0  0  0  0 11  0  0
   -1.5672   -0.6670   -0.7267 C   0  0  0  0  0  0  0  0  0 12  0  0
   -1.3006   -1.9907   -1.1076 C   0  0  0  0  0  0  0  0  0 13  0  0
   -0.0219   -2.5638   -0.9917 C   0  0  0  0  0  0  0  0  0 14  0  0
    1.0284   -1.8027   -0.4820 C   0  0  0  0  0  0  0  0  0 15  0  0
    2.3454   -2.2231   -0.3055 C   0  0  0  0  0  0  0  0  0 16  0  0
    3.2932   -1.3296    0.2239 C   0  0  0  0  0  0  0  0  0 17  0  0
    2.9644   -0.0149    0.5868 C   0  0  0  0  0  0  0  0  0 18  0  0
    1.6450    0.3647    0.3960 C   0  0  0  0  0  0  0  0  0 19  0  0
    0.7388   -0.5191   -0.1201 C   0  0  0  0  0  0  0  0  0 20  0  0
 20 15  4  0
 20 11  4  0
 19 20  4  0
 19  6  4  0
 18 19  4  0
 17 18  4  0
 16 17  4  0
 15 16  4  0
 14 15  4  0
 13 14  4  0
 12 13  4  0
 11 12  4  0
  7 11  4  0
 10  1  4  0
  9 10  4  0
  9  4  4  0
  8  9  4  0
  7  8  4  0
  6  7  4  0
  5  6  4  0
  4  5  4  0
  3  4  4  0
  2  3  4  0
  1  2  4  0
M  END