chrysene
  SciTegic01131010503D

 18 21  0  0  0  0            999 V2000
   -1.4737    1.5437    0.0002 C   0  0  0  0  0  0  0  0  0  1  0  0
   -0.7774    2.7471   -0.0001 C   0  0  0  0  0  0  0  0  0  2  0  0
    0.6128    2.7460   -0.0004 C   0  0  0  0  0  0  0  0  0  3  0  0
    1.3067    1.5415   -0.0004 C   0  0  0  0  0  0  0  0  0  4  0  0
    2.6966    1.5416   -0.0008 C   0  0  0  0  0  0  0  0  0  5  0  0
    3.3911    0.3377   -0.0008 C   0  0  0  0  0  0  0  0  0  6  0  0
    2.6961   -0.8663   -0.0004 C   0  0  0  0  0  0  0  0  0  7  0  0
    3.3909   -2.0704   -0.0004 C   0  0  0  0  0  0  0  0  0  8  0  0
    4.7813   -2.0721   -0.0008 C   0  0  0  0  0  0  0  0  0  9  0  0
    5.4752   -3.2767   -0.0008 C   0  0  0  0  0  0  0  0  0 10  0  0
    4.7789   -4.4801   -0.0005 C   0  0  0  0  0  0  0  0  0 11  0  0
    3.3887   -4.4790   -0.0001 C   0  0  0  0  0  0  0  0  0 12  0  0
    2.6948   -3.2745   -0.0001 C   0  0  0  0  0  0  0  0  0 13  0  0
    1.3049   -3.2746    0.0002 C   0  0  0  0  0  0  0  0  0 14  0  0
    0.6104   -2.0707    0.0002 C   0  0  0  0  0  0  0  0  0 15  0  0
    1.3054   -0.8667   -0.0001 C   0  0  0  0  0  0  0  0  0 16  0  0
    0.6106    0.3374   -0.0001 C   0  0  0  0  0  0  0  0  0 17  0  0
   -0.7798    0.3391    0.0002 C   0  0  0  0  0  0  0  0  0 18  0  0
 18  1  4  0
 17 18  4  0
 17  4  4  0
 16 17  4  0
 16  7  4  0
 15 16  4  0
 14 15  4  0
 13 14  4  0
 13  8  4  0
 12 13  4  0
 11 12  4  0
 10 11  4  0
  9 10  4  0
  8  9  4  0
  7  8  4  0
  6  7  4  0
  5  6  4  0
  4  5  4  0
  3  4  4  0
  2  3  4  0
  1  2  4  0
M  END