delta-hexachlorocyclohexane
  SciTegic01131010503D

 12 12  0  0  0  0            999 V2000
    0.3027    1.0405   -1.0365 C   0  0  0  0  0  0  0  0  0  1  0  0
    0.9429    2.3688   -1.0948 C   0  0  0  0  0  0  0  0  0  2  0  0
    1.5424    2.6564    0.4023 C   0  0  0  0  0  0  0  0  0  3  0  0
    0.6847    2.0858    1.6824 C   0  0  0  0  0  0  0  0  0  4  0  0
   -0.7534    2.1814    1.2965 C   0  0  0  0  0  0  0  0  0  5  0  0
   -1.0810    3.8948    0.9734 Cl  0  0  0  0  0  0  0  0  0  6  0  0
    0.9895    0.3873    2.0947 Cl  0  0  0  0  0  0  0  0  0  7  0  0
    1.8037    4.4062    0.4509 Cl  0  0  0  0  0  0  0  0  0  8  0  0
   -0.3120    3.4963   -1.6443 Cl  0  0  0  0  0  0  0  0  0  9  0  0
   -0.9507    1.1798    0.0091 C   0  0  0  0  0  0  0  0  0 10  0  0
   -1.3413   -0.4856    0.4632 Cl  0  0  0  0  0  0  0  0  0 11  0  0
    1.5752   -0.0984   -0.5556 Cl  0  0  0  0  0  0  0  0  0 12  0  0
  1 12  1  0
 10 11  1  0
 10  5  1  0
  1 10  1  0
  2  9  1  0
  3  8  1  0
  4  7  1  0
  5  6  1  0
  4  5  1  0
  3  4  1  0
  2  3  1  0
  1  2  1  0
M  END