benzene, fluoro-
  SciTegic01131010503D

  7  7  0  0  0  0            999 V2000
    1.9503   -0.3874    0.6906 F   0  0  0  0  0  0  0  0  0  1  0  0
    0.9175    0.4333    0.4518 C   0  0  0  0  0  0  0  0  0  2  0  0
    1.0179    1.7851    0.7614 C   0  0  0  0  0  0  0  0  0  3  0  0
   -0.0532    2.6363    0.5137 C   0  0  0  0  0  0  0  0  0  4  0  0
   -1.2246    2.1355   -0.0435 C   0  0  0  0  0  0  0  0  0  5  0  0
   -1.3250    0.7837   -0.3531 C   0  0  0  0  0  0  0  0  0  6  0  0
   -0.2538   -0.0675   -0.1054 C   0  0  0  0  0  0  0  0  0  7  0  0
  7  6  4  0
  2  7  4  0
  5  6  4  0
  4  5  4  0
  3  4  4  0
  2  3  4  0
  1  2  1  0
M  END