1h-indene, 2,3-dihydro-
  SciTegic01131010503D

  9 10  0  0  0  0            999 V2000
    0.9644   -0.0378    0.4998 C   0  0  0  0  0  0  0  0  0  1  0  0
   -0.0680    0.2762   -0.3541 C   0  0  0  0  0  0  0  0  0  2  0  0
   -0.8907    1.3686   -0.1204 C   0  0  0  0  0  0  0  0  0  3  0  0
   -0.6472    2.1387    1.0149 C   0  0  0  0  0  0  0  0  0  4  0  0
    0.4003    1.8202    1.8812 C   0  0  0  0  0  0  0  0  0  5  0  0
   -0.1511   -0.6517   -1.5092 C   0  0  0  0  0  0  0  0  0  6  0  0
    0.6938   -1.8559   -0.9504 C   0  0  0  0  0  0  0  0  0  7  0  0
    1.2242    0.7253    1.6289 C   0  0  0  0  0  0  0  0  0  8  0  0
    1.7326   -1.2247    0.0488 C   0  0  0  0  0  0  0  0  0  9  0  0
  9  7  1  0
  1  9  1  0
  8  5  4  0
  1  8  4  0
  6  7  1  0
  2  6  1  0
  4  5  4  0
  3  4  4  0
  2  3  4  0
  1  2  4  0
M  END