phenol, 2-methyl-4,6-dinitro-
  SciTegic01131010503D

 14 14  0  0  0  0            999 V2000
    2.1300   -1.3123   -0.1734 N   0  0  0  0  0  0  0  0  0  1  0  0
    3.0919   -1.0869    0.4640 O   0  0  0  0  0  0  0  0  0  2  0  0
    1.5626   -2.0074   -0.9330 O   0  0  0  0  0  0  0  0  0  3  0  0
    1.2487   -0.2623    0.0996 C   0  0  0  0  0  0  0  0  0  4  0  0
    1.6210    0.7489    0.9768 C   0  0  0  0  0  0  0  0  0  5  0  0
    0.7533    1.7994    1.2571 C   0  0  0  0  0  0  0  0  0  6  0  0
    1.1899    2.8044    2.1623 N   0  0  0  0  0  0  0  0  0  7  0  0
    2.2722    2.4739    2.4811 O   0  0  0  0  0  0  0  0  0  8  0  0
    0.3233    3.5881    2.2611 O   0  0  0  0  0  0  0  0  0  9  0  0
   -0.5033    1.8317    0.6472 C   0  0  0  0  0  0  0  0  0 10  0  0
   -1.4120    2.8612    0.8926 O   0  0  0  0  0  0  0  0  0 11  0  0
   -0.8732    0.8181   -0.2304 C   0  0  0  0  0  0  0  0  0 12  0  0
   -2.2227    0.8543   -0.8843 C   0  0  0  0  0  0  0  0  0 13  0  0
   -0.0010   -0.2276   -0.5051 C   0  0  0  0  0  0  0  0  0 14  0  0
 14 12  4  0
  4 14  4  0
 12 13  1  0
 10 12  4  0
 10 11  1  0
  6 10  4  0
  7  9  2  0
  7  8  2  0
  6  7  1  0
  5  6  4  0
  4  5  4  0
  1  4  1  0
  1  3  2  0
  1  2  2  0
M  END