benzene, 1,3-dichloro-
  SciTegic01131010503D

  8  8  0  0  0  0            999 V2000
    1.0339    0.4819    0.4863 C   0  0  0  0  0  0  0  0  0  1  0  0
    1.1021    1.7290    1.0974 C   0  0  0  0  0  0  0  0  0  2  0  0
    0.0652    2.6408    0.9340 C   0  0  0  0  0  0  0  0  0  3  0  0
   -1.0397    2.3054    0.1595 C   0  0  0  0  0  0  0  0  0  4  0  0
   -1.1077    1.0583   -0.4515 C   0  0  0  0  0  0  0  0  0  5  0  0
   -2.4807    0.6416   -1.4139 Cl  0  0  0  0  0  0  0  0  0  6  0  0
   -0.0709    0.1464   -0.2882 C   0  0  0  0  0  0  0  0  0  7  0  0
    2.3225   -0.6510    0.6893 Cl  0  0  0  0  0  0  0  0  0  8  0  0
  1  8  1  0
  7  5  4  0
  1  7  4  0
  5  6  1  0
  4  5  4  0
  3  4  4  0
  2  3  4  0
  1  2  4  0
M  END