benzene, iodo-
  SciTegic01131010503D

  7  7  0  0  0  0            999 V2000
    0.8256    0.4775    0.4248 C   0  0  0  0  0  0  0  0  0  1  0  0
    0.9582    1.8225    0.7513 C   0  0  0  0  0  0  0  0  0  2  0  0
   -0.0928    2.7018    0.5160 C   0  0  0  0  0  0  0  0  0  3  0  0
   -1.2764    2.2359   -0.0458 C   0  0  0  0  0  0  0  0  0  4  0  0
   -1.4089    0.8909   -0.3723 C   0  0  0  0  0  0  0  0  0  5  0  0
   -0.3579    0.0116   -0.1370 C   0  0  0  0  0  0  0  0  0  6  0  0
    2.3835   -0.8258    0.7736 I   0  0  0  0  0  0  0  0  0  7  0  0
  1  7  1  0
  6  5  4  0
  1  6  4  0
  4  5  4  0
  3  4  4  0
  2  3  4  0
  1  2  4  0
M  END