1,4-pentadiene
  SciTegic01131010503D

  5  4  0  0  0  0            999 V2000
    1.9475    1.0852    0.0403 C   0  0  0  0  0  0  0  0  0  1  0  0
    1.5633    2.2588   -0.4592 C   0  0  0  0  0  0  0  0  0  2  0  0
    0.9351    0.0063    0.3232 C   0  0  0  0  0  0  0  0  0  3  0  0
   -0.4443    0.4832   -0.0376 C   0  0  0  0  0  0  0  0  0  4  0  0
   -1.4922   -0.3196    0.1349 C   0  0  0  0  0  0  0  0  0  5  0  0
  4  5  2  0
  3  4  1  0
  1  3  1  0
  1  2  2  0
M  END