benzene, pentachloro-
  SciTegic01131010503D

 11 11  0  0  0  0            999 V2000
    1.1690    0.5786    0.6393 C   0  0  0  0  0  0  0  0  0  1  0  0
    0.9073    1.9181    0.9034 C   0  0  0  0  0  0  0  0  0  2  0  0
   -0.2842    2.4914    0.4743 C   0  0  0  0  0  0  0  0  0  3  0  0
   -1.2139    1.7251   -0.2190 C   0  0  0  0  0  0  0  0  0  4  0  0
   -0.9523    0.3856   -0.4832 C   0  0  0  0  0  0  0  0  0  5  0  0
   -2.1084   -0.5657   -1.3449 Cl  0  0  0  0  0  0  0  0  0  6  0  0
   -2.6943    2.4375   -0.7522 Cl  0  0  0  0  0  0  0  0  0  7  0  0
   -0.6093    4.1557    0.8026 Cl  0  0  0  0  0  0  0  0  0  8  0  0
    2.0626    2.8702    1.7650 Cl  0  0  0  0  0  0  0  0  0  9  0  0
    0.2393   -0.1880   -0.0542 C   0  0  0  0  0  0  0  0  0 10  0  0
    2.6499   -0.1328    1.1730 Cl  0  0  0  0  0  0  0  0  0 11  0  0
  1 11  1  0
 10  5  4  0
  1 10  4  0
  2  9  1  0
  3  8  1  0
  4  7  1  0
  5  6  1  0
  4  5  4  0
  3  4  4  0
  2  3  4  0
  1  2  4  0
M  END