1-propanamine, n-nitroso-n-propyl-
  SciTegic01131010503D

  9  8  0  0  0  0            999 V2000
   -0.5368   -0.7173   -0.0847 O   0  0  0  0  0  0  0  0  0  1  0  0
    0.6153   -0.9318    0.0148 N   0  0  0  0  0  0  0  0  0  2  0  0
    1.4508   -0.1848    0.7844 N   0  0  0  0  0  0  0  0  0  3  0  0
    1.0203    1.0677    1.4527 C   0  0  0  0  0  0  0  0  0  4  0  0
    0.0370    1.9437    0.6247 C   0  0  0  0  0  0  0  0  0  5  0  0
    0.7023    2.3937   -0.6913 C   0  0  0  0  0  0  0  0  0  6  0  0
    2.7463   -0.7730    1.1163 C   0  0  0  0  0  0  0  0  0  7  0  0
    3.8333    0.2690    1.5103 C   0  0  0  0  0  0  0  0  0  8  0  0
    4.3073    1.0749    0.2711 C   0  0  0  0  0  0  0  0  0  9  0  0
  8  9  1  0
  7  8  1  0
  3  7  1  0
  5  6  1  0
  4  5  1  0
  3  4  1  0
  2  3  1  0
  1  2  2  0
M  END