1,4-cyclohexadiene
  SciTegic01131010503D

  6  6  0  0  0  0            999 V2000
   -0.1054    2.7665   -0.0392 C   0  0  0  0  0  0  0  0  0  1  0  0
    0.7847    2.3163    0.8438 C   0  0  0  0  0  0  0  0  0  2  0  0
    1.0243    0.8546    1.1040 C   0  0  0  0  0  0  0  0  0  3  0  0
    0.1593   -0.0484    0.2685 C   0  0  0  0  0  0  0  0  0  4  0  0
   -0.7308    0.4019   -0.6145 C   0  0  0  0  0  0  0  0  0  5  0  0
   -0.9704    1.8636   -0.8747 C   0  0  0  0  0  0  0  0  0  6  0  0
  6  5  1  0
  1  6  1  0
  4  5  2  0
  3  4  1  0
  2  3  1  0
  1  2  2  0
M  END