acetic acid, pentyl ester
  SciTegic01131010503D

  9  8  0  0  0  0            999 V2000
    1.9885   -0.6290    2.7264 O   0  0  0  0  0  0  0  0  0  1  0  0
    2.1821    0.3351    1.9775 C   0  0  0  0  0  0  0  0  0  2  0  0
    1.1668    0.7317    1.0870 O   0  0  0  0  0  0  0  0  0  3  0  0
    1.5653    1.8647    0.2974 C   0  0  0  0  0  0  0  0  0  4  0  0
    0.4525    2.3072   -0.7007 C   0  0  0  0  0  0  0  0  0  5  0  0
    0.1697    1.2484   -1.8104 C   0  0  0  0  0  0  0  0  0  6  0  0
   -0.4616   -0.0432   -1.2477 C   0  0  0  0  0  0  0  0  0  7  0  0
   -0.7065   -1.0376   -2.3965 C   0  0  0  0  0  0  0  0  0  8  0  0
    3.5032    1.0643    2.0342 C   0  0  0  0  0  0  0  0  0  9  0  0
  2  9  1  0
  7  8  1  0
  6  7  1  0
  5  6  1  0
  4  5  1  0
  3  4  1  0
  2  3  1  0
  1  2  2  0
M  END