benzene, 1,2,3,5-tetrachloro-
  SciTegic01131010503D

 10 10  0  0  0  0            999 V2000
    1.3466    0.1725    0.2180 C   0  0  0  0  0  0  0  0  0  1  0  0
    1.5393    1.5162    0.5187 C   0  0  0  0  0  0  0  0  0  2  0  0
    0.4527    2.3827    0.5556 C   0  0  0  0  0  0  0  0  0  3  0  0
   -0.8261    1.9055    0.2918 C   0  0  0  0  0  0  0  0  0  4  0  0
   -1.0187    0.5620   -0.0089 C   0  0  0  0  0  0  0  0  0  5  0  0
   -2.6082   -0.0297   -0.3366 Cl  0  0  0  0  0  0  0  0  0  6  0  0
   -2.1760    2.9822    0.3377 Cl  0  0  0  0  0  0  0  0  0  7  0  0
    0.6907    4.0524    0.9292 Cl  0  0  0  0  0  0  0  0  0  8  0  0
    0.0677   -0.3048   -0.0459 C   0  0  0  0  0  0  0  0  0  9  0  0
    2.6968   -0.9044    0.1721 Cl  0  0  0  0  0  0  0  0  0 10  0  0
  1 10  1  0
  9  5  4  0
  1  9  4  0
  3  8  1  0
  4  7  1  0
  5  6  1  0
  4  5  4  0
  3  4  4  0
  2  3  4  0
  1  2  4  0
M  END