carbamothioic acid, dipropyl-, s-ethyl ester
  SciTegic01131010503D

 12 11  0  0  0  0            999 V2000
    0.3137    0.4741   -1.2697 O   0  0  0  0  0  0  0  0  0  1  0  0
    1.3277    0.2157   -0.6129 C   0  0  0  0  0  0  0  0  0  2  0  0
    1.1814    0.0509    0.8062 N   0  0  0  0  0  0  0  0  0  3  0  0
   -0.1802    0.1276    1.3272 C   0  0  0  0  0  0  0  0  0  4  0  0
   -0.2765    0.7331    2.7533 C   0  0  0  0  0  0  0  0  0  5  0  0
   -0.0055    2.2585    2.7163 C   0  0  0  0  0  0  0  0  0  6  0  0
    2.2947   -0.2943    1.7332 C   0  0  0  0  0  0  0  0  0  7  0  0
    3.6671    0.3954    1.4626 C   0  0  0  0  0  0  0  0  0  8  0  0
    3.5708    1.9269    1.6282 C   0  0  0  0  0  0  0  0  0  9  0  0
    2.8646   -0.0413   -1.4864 S   0  0  0  0  0  0  0  0  0 10  0  0
    2.6742    0.3787   -3.2399 C   0  0  0  0  0  0  0  0  0 11  0  0
    1.6460   -0.5576   -3.9030 C   0  0  0  0  0  0  0  0  0 12  0  0
 11 12  1  0
 10 11  1  0
  2 10  1  0
  8  9  1  0
  7  8  1  0
  3  7  1  0
  5  6  1  0
  4  5  1  0
  3  4  1  0
  2  3  1  0
  1  2  2  0
M  END