atrazine
  SciTegic01131010503D

 14 14  0  0  0  0            999 V2000
    0.6358    1.4380   -0.8933 N   0  0  0  0  0  0  0  0  0  1  0  0
    0.1685    2.4431   -0.1665 C   0  0  0  0  0  0  0  0  0  2  0  0
   -0.5123    2.1979    0.9452 N   0  0  0  0  0  0  0  0  0  3  0  0
   -0.7303    0.9480    1.3358 C   0  0  0  0  0  0  0  0  0  4  0  0
   -0.2612   -0.0555    0.6051 N   0  0  0  0  0  0  0  0  0  5  0  0
   -1.4545    0.6562    2.5197 N   0  0  0  0  0  0  0  0  0  6  0  0
   -1.9939    1.6775    3.4035 C   0  0  0  0  0  0  0  0  0  7  0  0
   -3.0127    2.5732    2.6634 C   0  0  0  0  0  0  0  0  0  8  0  0
   -0.8615    2.5490    3.9904 C   0  0  0  0  0  0  0  0  0  9  0  0
    0.3901    3.7585   -0.5696 N   0  0  0  0  0  0  0  0  0 10  0  0
   -0.1223    4.8426    0.2164 C   0  0  0  0  0  0  0  0  0 11  0  0
    0.2284    6.1781   -0.4625 C   0  0  0  0  0  0  0  0  0 12  0  0
    0.4205    0.1878   -0.5064 C   0  0  0  0  0  0  0  0  0 13  0  0
    1.0285   -1.1249   -1.4509 Cl  0  0  0  0  0  0  0  0  0 14  0  0
 13 14  1  0
 13  5  4  0
  1 13  4  0
 11 12  1  0
 10 11  1  0
  2 10  1  0
  7  9  1  0
  7  8  1  0
  6  7  1  0
  4  6  1  0
  4  5  4  0
  3  4  4  0
  2  3  4  0
  1  2  4  0
M  END