octachlorodibenzo-p-dioxin
  SciTegic01131010503D

 22 24  0  0  0  0            999 V2000
   -1.5758    3.0189    2.7417 Cl  0  0  0  0  0  0  0  0  0  1  0  0
   -0.5603    2.2152    1.5989 C   0  0  0  0  0  0  0  0  0  2  0  0
   -0.2214    2.8449    0.4067 C   0  0  0  0  0  0  0  0  0  3  0  0
   -0.8160    4.4308    0.0685 Cl  0  0  0  0  0  0  0  0  0  4  0  0
    0.5957    2.1982   -0.5133 C   0  0  0  0  0  0  0  0  0  5  0  0
    1.0174    2.9790   -1.9946 Cl  0  0  0  0  0  0  0  0  0  6  0  0
    1.0736    0.9221   -0.2409 C   0  0  0  0  0  0  0  0  0  7  0  0
    1.8712    0.2902   -1.1394 O   0  0  0  0  0  0  0  0  0  8  0  0
    2.3360   -0.9574   -0.8748 C   0  0  0  0  0  0  0  0  0  9  0  0
    3.1502   -1.6050   -1.7959 C   0  0  0  0  0  0  0  0  0 10  0  0
    3.5702   -0.8217   -3.2764 Cl  0  0  0  0  0  0  0  0  0 11  0  0
    3.6257   -2.8828   -1.5250 C   0  0  0  0  0  0  0  0  0 12  0  0
    4.6376   -3.6884   -2.6698 Cl  0  0  0  0  0  0  0  0  0 13  0  0
    3.2869   -3.5125   -0.3328 C   0  0  0  0  0  0  0  0  0 14  0  0
    3.8777   -5.1003    0.0034 Cl  0  0  0  0  0  0  0  0  0 15  0  0
    2.4724   -2.8645    0.5886 C   0  0  0  0  0  0  0  0  0 16  0  0
    2.0506   -3.6454    2.0699 Cl  0  0  0  0  0  0  0  0  0 17  0  0
    1.9971   -1.5872    0.3176 C   0  0  0  0  0  0  0  0  0 18  0  0
    1.2014   -0.9544    1.2171 O   0  0  0  0  0  0  0  0  0 19  0  0
    0.7347    0.2923    0.9515 C   0  0  0  0  0  0  0  0  0 20  0  0
   -0.0821    0.9387    1.8713 C   0  0  0  0  0  0  0  0  0 21  0  0
   -0.5022    0.1552    3.3517 Cl  0  0  0  0  0  0  0  0  0 22  0  0
 21 22  1  0
 21  2  4  0
 20 21  4  0
 20  7  4  0
 19 20  1  0
 18 19  1  0
 18  9  4  0
 16 18  4  0
 16 17  1  0
 14 16  4  0
 14 15  1  0
 12 14  4  0
 12 13  1  0
 10 12  4  0
 10 11  1  0
  9 10  4  0
  8  9  1  0
  7  8  1  0
  5  7  4  0
  5  6  1  0
  3  5  4  0
  3  4  1  0
  2  3  4  0
  1  2  1  0
M  END