o,p' - DDE
  SciTegic01131010503D

 18 19  0  0  0  0            999 V2000
   -1.5693    2.7605    3.1366 Cl  0  0  0  0  0  0  0  0  0  1  0  0
   -0.6385    1.5204    2.3532 C   0  0  0  0  0  0  0  0  0  2  0  0
   -0.2253    1.6719    1.0619 C   0  0  0  0  0  0  0  0  0  3  0  0
   -0.6563    2.9243    0.2850 C   0  0  0  0  0  0  0  0  0  4  0  0
    0.3112    3.6905   -0.3653 C   0  0  0  0  0  0  0  0  0  5  0  0
   -0.0288    4.8345   -1.0760 C   0  0  0  0  0  0  0  0  0  6  0  0
   -1.3564    5.2304   -1.1518 C   0  0  0  0  0  0  0  0  0  7  0  0
   -2.3333    4.4719   -0.5214 C   0  0  0  0  0  0  0  0  0  8  0  0
   -1.9939    3.3284    0.1943 C   0  0  0  0  0  0  0  0  0  9  0  0
   -3.2824    2.4092    0.9101 Cl  0  0  0  0  0  0  0  0  0 10  0  0
    0.6929    0.6395    0.3459 C   0  0  0  0  0  0  0  0  0 11  0  0
    0.9707    0.7747   -1.0137 C   0  0  0  0  0  0  0  0  0 12  0  0
    1.7775   -0.1361   -1.6856 C   0  0  0  0  0  0  0  0  0 13  0  0
    2.3238   -1.2131   -1.0016 C   0  0  0  0  0  0  0  0  0 14  0  0
    2.0564   -1.3701    0.3512 C   0  0  0  0  0  0  0  0  0 15  0  0
    1.2478   -0.4512    1.0100 C   0  0  0  0  0  0  0  0  0 16  0  0
    3.3275   -2.3508   -1.8285 Cl  0  0  0  0  0  0  0  0  0 17  0  0
   -0.2403    0.1541    3.3538 Cl  0  0  0  0  0  0  0  0  0 18  0  0
  2 18  1  0
 14 17  1  0
 16 11  4  0
 15 16  4  0
 14 15  4  0
 13 14  4  0
 12 13  4  0
 11 12  4  0
  3 11  1  0
  9 10  1  0
  9  4  4  0
  8  9  4  0
  7  8  4  0
  6  7  4  0
  5  6  4  0
  4  5  4  0
  3  4  1  0
  2  3  2  0
  1  2  1  0
M  END