2,8-dichlorodibenzofuran
  SciTegic01131010503D

 15 17  0  0  0  0            999 V2000
   -3.0294    2.8556    1.6257 C   0  0  0  0  0  0  0  0  0  1  0  0
   -1.7586    3.1202    1.9529 C   0  0  0  0  0  0  0  0  0  2  0  0
   -0.7429    2.2258    1.4450 C   0  0  0  0  0  0  0  0  0  3  0  0
   -1.0479    1.1918    0.6914 C   0  0  0  0  0  0  0  0  0  4  0  0
   -2.4006    0.8664    0.3126 C   0  0  0  0  0  0  0  0  0  5  0  0
   -3.3678    1.6724    0.7645 C   0  0  0  0  0  0  0  0  0  6  0  0
   -5.0150    1.3506    0.3551 Cl  0  0  0  0  0  0  0  0  0  7  0  0
    0.1624    0.5318    0.3685 C   0  0  0  0  0  0  0  0  0  8  0  0
    1.1395    1.1993    0.9429 C   0  0  0  0  0  0  0  0  0  9  0  0
    0.6311    2.2869    1.6423 O   0  0  0  0  0  0  0  0  0 10  0  0
    2.5189    0.7876    0.8119 C   0  0  0  0  0  0  0  0  0 11  0  0
    2.7669   -0.3051    0.0795 C   0  0  0  0  0  0  0  0  0 12  0  0
    1.6444   -1.0607   -0.5725 C   0  0  0  0  0  0  0  0  0 13  0  0
    0.3796   -0.6496   -0.4290 C   0  0  0  0  0  0  0  0  0 14  0  0
    1.9884   -2.4684   -1.5131 Cl  0  0  0  0  0  0  0  0  0 15  0  0
 13 15  1  0
 14  8  4  0
 13 14  4  0
 12 13  4  0
 11 12  4  0
  9 11  4  0
 10  3  4  0
  9 10  4  0
  8  9  4  0
  4  8  4  0
  6  7  1  0
  6  1  4  0
  5  6  4  0
  4  5  4  0
  3  4  4  0
  2  3  4  0
  1  2  4  0
M  END