benzene, 1-chloro-4-phenoxy-
  SciTegic01131010503D

 14 15  0  0  0  0            999 V2000
    1.5192   -0.6411    0.3109 O   0  0  0  0  0  0  0  0  0  1  0  0
    2.9123   -0.2355    0.4611 C   0  0  0  0  0  0  0  0  0  2  0  0
    3.8500   -1.2610    0.5419 C   0  0  0  0  0  0  0  0  0  3  0  0
    5.2050   -0.9852    0.6862 C   0  0  0  0  0  0  0  0  0  4  0  0
    5.6422    0.3312    0.7520 C   0  0  0  0  0  0  0  0  0  5  0  0
    4.7199    1.3663    0.6730 C   0  0  0  0  0  0  0  0  0  6  0  0
    7.3251    0.6794    0.9313 Cl  0  0  0  0  0  0  0  0  0  7  0  0
    3.3672    1.0806    0.5288 C   0  0  0  0  0  0  0  0  0  8  0  0
    0.3892    0.2757    0.2086 C   0  0  0  0  0  0  0  0  0  9  0  0
    0.4727    1.6670    0.2390 C   0  0  0  0  0  0  0  0  0 10  0  0
   -0.6661    2.4572    0.1338 C   0  0  0  0  0  0  0  0  0 11  0  0
   -1.9136    1.8627   -0.0044 C   0  0  0  0  0  0  0  0  0 12  0  0
   -2.0126    0.4778   -0.0363 C   0  0  0  0  0  0  0  0  0 13  0  0
   -0.8682   -0.3047    0.0696 C   0  0  0  0  0  0  0  0  0 14  0  0
 14 13  4  0
  9 14  4  0
 12 13  4  0
 11 12  4  0
 10 11  4  0
  9 10  4  0
  1  9  1  0
  8  6  4  0
  2  8  4  0
  5  7  1  0
  5  6  4  0
  4  5  4  0
  3  4  4  0
  2  3  4  0
  1  2  1  0
M  END