2,2'-dichlorobiphenyl
  SciTegic01131010503D

 14 15  0  0  0  0            999 V2000
   -3.0613    3.7613   -0.0932 C   0  0  0  0  0  0  0  0  0  1  0  0
   -2.5504    4.9858   -0.0481 C   0  0  0  0  0  0  0  0  0  2  0  0
   -1.1098    5.1691    0.0459 C   0  0  0  0  0  0  0  0  0  3  0  0
   -0.2848    4.1231    0.0881 C   0  0  0  0  0  0  0  0  0  4  0  0
   -0.8594    2.7140    0.0371 C   0  0  0  0  0  0  0  0  0  5  0  0
   -2.1840    2.5953   -0.0489 C   0  0  0  0  0  0  0  0  0  6  0  0
    0.0128    1.4494    0.0801 C   0  0  0  0  0  0  0  0  0  7  0  0
    1.3375    1.5682    0.1660 C   0  0  0  0  0  0  0  0  0  8  0  0
    2.2147    0.4021    0.2103 C   0  0  0  0  0  0  0  0  0  9  0  0
    1.7038   -0.8223    0.1652 C   0  0  0  0  0  0  0  0  0 10  0  0
    0.2632   -1.0057    0.0712 C   0  0  0  0  0  0  0  0  0 11  0  0
   -0.5618    0.0403    0.0290 C   0  0  0  0  0  0  0  0  0 12  0  0
   -2.2624   -0.3034   -0.0833 Cl  0  0  0  0  0  0  0  0  0 13  0  0
    1.4158    4.4668    0.2004 Cl  0  0  0  0  0  0  0  0  0 14  0  0
  4 14  1  0
 12 13  1  0
 12  7  4  0
 11 12  4  0
 10 11  4  0
  9 10  4  0
  8  9  4  0
  7  8  4  0
  5  7  1  0
  6  1  4  0
  5  6  4  0
  4  5  4  0
  3  4  4  0
  2  3  4  0
  1  2  4  0
M  END