3,3',4,4',5,5'-hexachlorobiphenyl  (PCB 169)
  SciTegic01131010503D

 18 19  0  0  0  0            999 V2000
   -0.2708    5.3004    2.7483 Cl  0  0  0  0  0  0  0  0  0  1  0  0
   -0.8133    3.9655    1.7958 C   0  0  0  0  0  0  0  0  0  2  0  0
    0.0532    2.9164    1.5116 C   0  0  0  0  0  0  0  0  0  3  0  0
   -0.3844    1.8423    0.7451 C   0  0  0  0  0  0  0  0  0  4  0  0
   -1.6881    1.8171    0.2628 C   0  0  0  0  0  0  0  0  0  5  0  0
   -2.5542    2.8665    0.5470 C   0  0  0  0  0  0  0  0  0  6  0  0
   -4.1740    2.8365   -0.0520 Cl  0  0  0  0  0  0  0  0  0  7  0  0
   -2.1168    3.9406    1.3135 C   0  0  0  0  0  0  0  0  0  8  0  0
   -3.1932    5.2444    1.6667 Cl  0  0  0  0  0  0  0  0  0  9  0  0
    0.5255    0.7401    0.4465 C   0  0  0  0  0  0  0  0  0 10  0  0
    0.0869   -0.3357   -0.3171 C   0  0  0  0  0  0  0  0  0 11  0  0
    0.9533   -1.3849   -0.6011 C   0  0  0  0  0  0  0  0  0 12  0  0
    0.4094   -2.7221   -1.5495 Cl  0  0  0  0  0  0  0  0  0 13  0  0
    2.2579   -1.3582   -0.1219 C   0  0  0  0  0  0  0  0  0 14  0  0
    3.3344   -2.6621   -0.4750 Cl  0  0  0  0  0  0  0  0  0 15  0  0
    2.6964   -0.2824    0.6416 C   0  0  0  0  0  0  0  0  0 16  0  0
    4.3176   -0.2501    1.2365 Cl  0  0  0  0  0  0  0  0  0 17  0  0
    1.8302    0.7669    0.9260 C   0  0  0  0  0  0  0  0  0 18  0  0
 18 10  4  0
 16 18  4  0
 16 17  1  0
 14 16  4  0
 14 15  1  0
 12 14  4  0
 12 13  1  0
 11 12  4  0
 10 11  4  0
  4 10  1  0
  8  9  1  0
  8  2  4  0
  6  8  4  0
  6  7  1  0
  5  6  4  0
  4  5  4  0
  3  4  4  0
  2  3  4  0
  1  2  1  0
M  END