isopropalin
  SciTegic01131010503D

 22 22  0  0  0  0            999 V2000
    1.0446    1.2055    4.5274 C   0  0  0  0  0  0  0  0  0  1  0  0
    1.2266    0.7925    3.0575 C   0  0  0  0  0  0  0  0  0  2  0  0
    0.4725   -0.5334    2.7994 C   0  0  0  0  0  0  0  0  0  3  0  0
    0.5979   -1.0192    1.3925 N   0  0  0  0  0  0  0  0  0  4  0  0
   -0.0317   -2.3002    0.9807 C   0  0  0  0  0  0  0  0  0  5  0  0
   -1.1745   -2.7984    1.9199 C   0  0  0  0  0  0  0  0  0  6  0  0
   -2.4749   -1.9662    1.7420 C   0  0  0  0  0  0  0  0  0  7  0  0
    1.4667   -0.3567    0.4417 C   0  0  0  0  0  0  0  0  0  8  0  0
    0.9520    0.6261   -0.4234 C   0  0  0  0  0  0  0  0  0  9  0  0
    1.7863    1.2521   -1.3417 C   0  0  0  0  0  0  0  0  0 10  0  0
    3.1285    0.9229   -1.4237 C   0  0  0  0  0  0  0  0  0 11  0  0
    3.6413   -0.0465   -0.5786 C   0  0  0  0  0  0  0  0  0 12  0  0
    2.8315   -0.6909    0.3496 C   0  0  0  0  0  0  0  0  0 13  0  0
    3.4899   -1.6761    1.1627 N   0  0  0  0  0  0  0  0  0 14  0  0
    2.7128   -2.1431    1.8972 O   0  0  0  0  0  0  0  0  0 15  0  0
    4.6060   -1.6642    0.7936 O   0  0  0  0  0  0  0  0  0 16  0  0
    4.0203    1.6098   -2.4229 C   0  0  0  0  0  0  0  0  0 17  0  0
    5.5017    1.6033   -1.9977 C   0  0  0  0  0  0  0  0  0 18  0  0
    3.4951    3.0007   -2.8285 C   0  0  0  0  0  0  0  0  0 19  0  0
   -0.4143    1.0525   -0.4328 N   0  0  0  0  0  0  0  0  0 20  0  0
   -0.4678    1.8580   -1.2874 O   0  0  0  0  0  0  0  0  0 21  0  0
   -0.9913    0.4677    0.3957 O   0  0  0  0  0  0  0  0  0 22  0  0
 20 22  2  0
 20 21  2  0
  9 20  1  0
 17 19  1  0
 17 18  1  0
 11 17  1  0
 14 16  2  0
 14 15  2  0
 13 14  1  0
 13  8  4  0
 12 13  4  0
 11 12  4  0
 10 11  4  0
  9 10  4  0
  8  9  4  0
  4  8  1  0
  6  7  1  0
  5  6  1  0
  4  5  1  0
  3  4  1  0
  2  3  1  0
  1  2  1  0
M  END