octachlorodibenzofuran
  SciTegic01131010503D

 21 23  0  0  0  0            999 V2000
    3.9455   -2.1489   -4.2278 Cl  0  0  0  0  0  0  0  0  0  1  0  0
    3.3893   -1.4999   -2.7269 C   0  0  0  0  0  0  0  0  0  2  0  0
    4.0050   -1.8827   -1.5347 C   0  0  0  0  0  0  0  0  0  3  0  0
    5.3180   -3.0036   -1.5818 Cl  0  0  0  0  0  0  0  0  0  4  0  0
    3.5811   -1.3780   -0.3054 C   0  0  0  0  0  0  0  0  0  5  0  0
    4.4071   -1.9140    1.1033 Cl  0  0  0  0  0  0  0  0  0  6  0  0
    2.5168   -0.4739   -0.3050 C   0  0  0  0  0  0  0  0  0  7  0  0
    1.9125   -0.0999   -1.4910 C   0  0  0  0  0  0  0  0  0  8  0  0
    0.9481    0.7427   -1.2920 O   0  0  0  0  0  0  0  0  0  9  0  0
    0.8754    0.9545   -0.0155 C   0  0  0  0  0  0  0  0  0 10  0  0
   -0.0195    1.7908    0.6303 C   0  0  0  0  0  0  0  0  0 11  0  0
   -1.1971    2.6863   -0.2604 Cl  0  0  0  0  0  0  0  0  0 12  0  0
    0.0563    1.8892    2.0153 C   0  0  0  0  0  0  0  0  0 13  0  0
   -1.0391    2.9196    2.8645 Cl  0  0  0  0  0  0  0  0  0 14  0  0
    1.0127    1.1599    2.7227 C   0  0  0  0  0  0  0  0  0 15  0  0
    1.0839    1.3017    4.4424 Cl  0  0  0  0  0  0  0  0  0 16  0  0
    1.9126    0.3186    2.0686 C   0  0  0  0  0  0  0  0  0 17  0  0
    3.0507   -0.5348    3.0332 Cl  0  0  0  0  0  0  0  0  0 18  0  0
    1.8262    0.2284    0.6777 C   0  0  0  0  0  0  0  0  0 19  0  0
    2.3304   -0.5987   -2.7132 C   0  0  0  0  0  0  0  0  0 20  0  0
    1.5574   -0.1145   -4.1795 Cl  0  0  0  0  0  0  0  0  0 21  0  0
 20 21  1  0
 20  2  4  0
  8 20  4  0
 19 10  4  0
 19  7  4  0
 17 19  4  0
 17 18  1  0
 15 17  4  0
 15 16  1  0
 13 15  4  0
 13 14  1  0
 11 13  4  0
 11 12  1  0
 10 11  4  0
  9 10  4  0
  8  9  4  0
  7  8  4  0
  5  7  4  0
  5  6  1  0
  3  5  4  0
  3  4  1  0
  2  3  4  0
  1  2  1  0
M  END