1,2,4-trichlorodibenzo-p-dioxin
  SciTegic01131010503D

 17 19  0  0  0  0            999 V2000
   -2.8208    1.5658   -0.2712 Cl  0  0  0  0  0  0  0  0  0  1  0  0
   -1.1184    1.4363   -0.0080 C   0  0  0  0  0  0  0  0  0  2  0  0
   -0.4228    2.4892    0.5756 C   0  0  0  0  0  0  0  0  0  3  0  0
    0.9473    2.3841    0.7871 C   0  0  0  0  0  0  0  0  0  4  0  0
    1.8137    3.6906    1.5118 Cl  0  0  0  0  0  0  0  0  0  5  0  0
    1.6209    1.2269    0.4151 C   0  0  0  0  0  0  0  0  0  6  0  0
    2.9593    1.1243    0.6216 O   0  0  0  0  0  0  0  0  0  7  0  0
    3.6185   -0.0066    0.2583 C   0  0  0  0  0  0  0  0  0  8  0  0
    4.9884   -0.1109    0.4701 C   0  0  0  0  0  0  0  0  0  9  0  0
    5.6621   -1.2687    0.0978 C   0  0  0  0  0  0  0  0  0 10  0  0
    4.9661   -2.3215   -0.4858 C   0  0  0  0  0  0  0  0  0 11  0  0
    3.5960   -2.2172   -0.6976 C   0  0  0  0  0  0  0  0  0 12  0  0
    2.9224   -1.0596   -0.3254 C   0  0  0  0  0  0  0  0  0 13  0  0
    1.5837   -0.9566   -0.5319 O   0  0  0  0  0  0  0  0  0 14  0  0
    0.9250    0.1741   -0.1685 C   0  0  0  0  0  0  0  0  0 15  0  0
   -0.4444    0.2788   -0.3800 C   0  0  0  0  0  0  0  0  0 16  0  0
   -1.3078   -1.0293   -1.1050 Cl  0  0  0  0  0  0  0  0  0 17  0  0
 16 17  1  0
 16  2  4  0
 15 16  4  0
 15  6  4  0
 14 15  1  0
 13 14  1  0
 13  8  4  0
 12 13  4  0
 11 12  4  0
 10 11  4  0
  9 10  4  0
  8  9  4  0
  7  8  1  0
  6  7  1  0
  4  6  4  0
  4  5  1  0
  3  4  4  0
  2  3  4  0
  1  2  1  0
M  END